/home/csa/gem5/build/X86_MESI_Two_Level/gem5.opt /home/csa/gem5/configs/example/fs.py --kernel=x86_64-vmlinux-2.6.22.9-nolimcsa/gem5/configs/example/fs.py --kernel=x86_64-vmlinux-2.6.22.9-nolimit.smp --ruby --num-cpus=1 --num-dirs=1 --caches --l2cache --l2_size=4MB --script=lab2/script/canneal_1c_simsmall.rcS

---------- Begin Simulation Statistics ----------
sim_seconds                                  5.331212                       # Number of seconds simulated
sim_ticks                                5331211896000                       # Number of ticks simulated
final_tick                               5331211896000                       # Number of ticks from beginning of simulation (restored from checkpoints and never reset)
sim_freq                                 1000000000000                       # Frequency of simulated ticks
host_inst_rate                                 235806                       # Simulator instruction rate (inst/s)
host_op_rate                                   461105                       # Simulator op (including micro ops) rate (op/s)
host_tick_rate                            13326039059                       # Simulator tick rate (ticks/s)
host_mem_usage                                1123748                       # Number of bytes of host memory used
host_seconds                                   400.06                       # Real time elapsed on the host
sim_insts                                    94336565                       # Number of instructions simulated
sim_ops                                     184469477                       # Number of ops (including micro ops) simulated
system.voltage_domain.voltage                       1                       # Voltage in Volts
system.clk_domain.clock                          1000                       # Clock period in ticks
system.mem_ctrls.bytes_read::ruby.dir_cntrl0     35626368                       # Number of bytes read from this memory
system.mem_ctrls.bytes_read::total           35626368                       # Number of bytes read from this memory
system.mem_ctrls.bytes_written::ruby.dir_cntrl0     32983936                       # Number of bytes written to this memory
system.mem_ctrls.bytes_written::total        32983936                       # Number of bytes written to this memory
system.mem_ctrls.num_reads::ruby.dir_cntrl0       556662                       # Number of read requests responded to by this memory
system.mem_ctrls.num_reads::total              556662                       # Number of read requests responded to by this memory
system.mem_ctrls.num_writes::ruby.dir_cntrl0       515374                       # Number of write requests responded to by this memory
system.mem_ctrls.num_writes::total             515374                       # Number of write requests responded to by this memory
system.mem_ctrls.bw_read::ruby.dir_cntrl0      6682602                       # Total read bandwidth from this memory (bytes/s)
system.mem_ctrls.bw_read::total               6682602                       # Total read bandwidth from this memory (bytes/s)
system.mem_ctrls.bw_write::ruby.dir_cntrl0      6186949                       # Write bandwidth from this memory (bytes/s)
system.mem_ctrls.bw_write::total              6186949                       # Write bandwidth from this memory (bytes/s)
system.mem_ctrls.bw_total::ruby.dir_cntrl0     12869551                       # Total bandwidth to/from this memory (bytes/s)
system.mem_ctrls.bw_total::total             12869551                       # Total bandwidth to/from this memory (bytes/s)
system.mem_ctrls.readReqs                      556662                       # Number of read requests accepted
system.mem_ctrls.writeReqs                     515374                       # Number of write requests accepted
system.mem_ctrls.readBursts                    556662                       # Number of DRAM read bursts, including those serviced by the write queue
system.mem_ctrls.writeBursts                   515374                       # Number of DRAM write bursts, including those merged in the write queue
system.mem_ctrls.bytesReadDRAM               35623424                       # Total number of bytes read from DRAM
system.mem_ctrls.bytesReadWrQ                    2944                       # Total number of bytes read from write queue
system.mem_ctrls.bytesWritten                32981504                       # Total number of bytes written to DRAM
system.mem_ctrls.bytesReadSys                35626368                       # Total read bytes from the system interface side
system.mem_ctrls.bytesWrittenSys             32983936                       # Total written bytes from the system interface side
system.mem_ctrls.servicedByWrQ                     46                       # Number of DRAM read bursts serviced by the write queue
system.mem_ctrls.mergedWrBursts                     7                       # Number of DRAM write bursts merged with an existing one
system.mem_ctrls.neitherReadNorWriteReqs            0                       # Number of requests that are neither read nor write
system.mem_ctrls.perBankRdBursts::0             33860                       # Per bank write bursts
system.mem_ctrls.perBankRdBursts::1             34012                       # Per bank write bursts
system.mem_ctrls.perBankRdBursts::2             34206                       # Per bank write bursts
system.mem_ctrls.perBankRdBursts::3             34609                       # Per bank write bursts
system.mem_ctrls.perBankRdBursts::4             34912                       # Per bank write bursts
system.mem_ctrls.perBankRdBursts::5             34906                       # Per bank write bursts
system.mem_ctrls.perBankRdBursts::6             35605                       # Per bank write bursts
system.mem_ctrls.perBankRdBursts::7             35040                       # Per bank write bursts
system.mem_ctrls.perBankRdBursts::8             34983                       # Per bank write bursts
system.mem_ctrls.perBankRdBursts::9             34434                       # Per bank write bursts
system.mem_ctrls.perBankRdBursts::10            34936                       # Per bank write bursts
system.mem_ctrls.perBankRdBursts::11            35494                       # Per bank write bursts
system.mem_ctrls.perBankRdBursts::12            35387                       # Per bank write bursts
system.mem_ctrls.perBankRdBursts::13            35286                       # Per bank write bursts
system.mem_ctrls.perBankRdBursts::14            34557                       # Per bank write bursts
system.mem_ctrls.perBankRdBursts::15            34389                       # Per bank write bursts
system.mem_ctrls.perBankWrBursts::0             31701                       # Per bank write bursts
system.mem_ctrls.perBankWrBursts::1             31431                       # Per bank write bursts
system.mem_ctrls.perBankWrBursts::2             31901                       # Per bank write bursts
system.mem_ctrls.perBankWrBursts::3             32306                       # Per bank write bursts
system.mem_ctrls.perBankWrBursts::4             32411                       # Per bank write bursts
system.mem_ctrls.perBankWrBursts::5             32256                       # Per bank write bursts
system.mem_ctrls.perBankWrBursts::6             32836                       # Per bank write bursts
system.mem_ctrls.perBankWrBursts::7             32509                       # Per bank write bursts
system.mem_ctrls.perBankWrBursts::8             32160                       # Per bank write bursts
system.mem_ctrls.perBankWrBursts::9             31811                       # Per bank write bursts
system.mem_ctrls.perBankWrBursts::10            32248                       # Per bank write bursts
system.mem_ctrls.perBankWrBursts::11            32627                       # Per bank write bursts
system.mem_ctrls.perBankWrBursts::12            32640                       # Per bank write bursts
system.mem_ctrls.perBankWrBursts::13            32557                       # Per bank write bursts
system.mem_ctrls.perBankWrBursts::14            32091                       # Per bank write bursts
system.mem_ctrls.perBankWrBursts::15            31851                       # Per bank write bursts
system.mem_ctrls.numRdRetry                         0                       # Number of times read queue was full causing retry
system.mem_ctrls.numWrRetry                         0                       # Number of times write queue was full causing retry
system.mem_ctrls.totGap                  5331211743000                       # Total gap between requests
system.mem_ctrls.readPktSize::0                     0                       # Read request sizes (log2)
system.mem_ctrls.readPktSize::1                     0                       # Read request sizes (log2)
system.mem_ctrls.readPktSize::2                     0                       # Read request sizes (log2)
system.mem_ctrls.readPktSize::3                     0                       # Read request sizes (log2)
system.mem_ctrls.readPktSize::4                     0                       # Read request sizes (log2)
system.mem_ctrls.readPktSize::5                     0                       # Read request sizes (log2)
system.mem_ctrls.readPktSize::6                556662                       # Read request sizes (log2)
system.mem_ctrls.writePktSize::0                    0                       # Write request sizes (log2)
system.mem_ctrls.writePktSize::1                    0                       # Write request sizes (log2)
system.mem_ctrls.writePktSize::2                    0                       # Write request sizes (log2)
system.mem_ctrls.writePktSize::3                    0                       # Write request sizes (log2)
system.mem_ctrls.writePktSize::4                    0                       # Write request sizes (log2)
system.mem_ctrls.writePktSize::5                    0                       # Write request sizes (log2)
system.mem_ctrls.writePktSize::6               515374                       # Write request sizes (log2)
system.mem_ctrls.rdQLenPdf::0                  556609                       # What read queue length does an incoming req see
system.mem_ctrls.rdQLenPdf::1                       7                       # What read queue length does an incoming req see
system.mem_ctrls.rdQLenPdf::2                       0                       # What read queue length does an incoming req see
system.mem_ctrls.rdQLenPdf::3                       0                       # What read queue length does an incoming req see
system.mem_ctrls.rdQLenPdf::4                       0                       # What read queue length does an incoming req see
system.mem_ctrls.rdQLenPdf::5                       0                       # What read queue length does an incoming req see
system.mem_ctrls.rdQLenPdf::6                       0                       # What read queue length does an incoming req see
system.mem_ctrls.rdQLenPdf::7                       0                       # What read queue length does an incoming req see
system.mem_ctrls.rdQLenPdf::8                       0                       # What read queue length does an incoming req see
system.mem_ctrls.rdQLenPdf::9                       0                       # What read queue length does an incoming req see
system.mem_ctrls.rdQLenPdf::10                      0                       # What read queue length does an incoming req see
system.mem_ctrls.rdQLenPdf::11                      0                       # What read queue length does an incoming req see
system.mem_ctrls.rdQLenPdf::12                      0                       # What read queue length does an incoming req see
system.mem_ctrls.rdQLenPdf::13                      0                       # What read queue length does an incoming req see
system.mem_ctrls.rdQLenPdf::14                      0                       # What read queue length does an incoming req see
system.mem_ctrls.rdQLenPdf::15                      0                       # What read queue length does an incoming req see
system.mem_ctrls.rdQLenPdf::16                      0                       # What read queue length does an incoming req see
system.mem_ctrls.rdQLenPdf::17                      0                       # What read queue length does an incoming req see
system.mem_ctrls.rdQLenPdf::18                      0                       # What read queue length does an incoming req see
system.mem_ctrls.rdQLenPdf::19                      0                       # What read queue length does an incoming req see
system.mem_ctrls.rdQLenPdf::20                      0                       # What read queue length does an incoming req see
system.mem_ctrls.rdQLenPdf::21                      0                       # What read queue length does an incoming req see
system.mem_ctrls.rdQLenPdf::22                      0                       # What read queue length does an incoming req see
system.mem_ctrls.rdQLenPdf::23                      0                       # What read queue length does an incoming req see
system.mem_ctrls.rdQLenPdf::24                      0                       # What read queue length does an incoming req see
system.mem_ctrls.rdQLenPdf::25                      0                       # What read queue length does an incoming req see
system.mem_ctrls.rdQLenPdf::26                      0                       # What read queue length does an incoming req see
system.mem_ctrls.rdQLenPdf::27                      0                       # What read queue length does an incoming req see
system.mem_ctrls.rdQLenPdf::28                      0                       # What read queue length does an incoming req see
system.mem_ctrls.rdQLenPdf::29                      0                       # What read queue length does an incoming req see
system.mem_ctrls.rdQLenPdf::30                      0                       # What read queue length does an incoming req see
system.mem_ctrls.rdQLenPdf::31                      0                       # What read queue length does an incoming req see
system.mem_ctrls.wrQLenPdf::0                       1                       # What write queue length does an incoming req see
system.mem_ctrls.wrQLenPdf::1                       1                       # What write queue length does an incoming req see
system.mem_ctrls.wrQLenPdf::2                       1                       # What write queue length does an incoming req see
system.mem_ctrls.wrQLenPdf::3                       1                       # What write queue length does an incoming req see
system.mem_ctrls.wrQLenPdf::4                       1                       # What write queue length does an incoming req see
system.mem_ctrls.wrQLenPdf::5                       1                       # What write queue length does an incoming req see
system.mem_ctrls.wrQLenPdf::6                       1                       # What write queue length does an incoming req see
system.mem_ctrls.wrQLenPdf::7                       1                       # What write queue length does an incoming req see
system.mem_ctrls.wrQLenPdf::8                       1                       # What write queue length does an incoming req see
system.mem_ctrls.wrQLenPdf::9                       1                       # What write queue length does an incoming req see
system.mem_ctrls.wrQLenPdf::10                      1                       # What write queue length does an incoming req see
system.mem_ctrls.wrQLenPdf::11                      1                       # What write queue length does an incoming req see
system.mem_ctrls.wrQLenPdf::12                      1                       # What write queue length does an incoming req see
system.mem_ctrls.wrQLenPdf::13                      1                       # What write queue length does an incoming req see
system.mem_ctrls.wrQLenPdf::14                      1                       # What write queue length does an incoming req see
system.mem_ctrls.wrQLenPdf::15                   1942                       # What write queue length does an incoming req see
system.mem_ctrls.wrQLenPdf::16                   2969                       # What write queue length does an incoming req see
system.mem_ctrls.wrQLenPdf::17                  31698                       # What write queue length does an incoming req see
system.mem_ctrls.wrQLenPdf::18                  32361                       # What write queue length does an incoming req see
system.mem_ctrls.wrQLenPdf::19                  31937                       # What write queue length does an incoming req see
system.mem_ctrls.wrQLenPdf::20                  32438                       # What write queue length does an incoming req see
system.mem_ctrls.wrQLenPdf::21                  32384                       # What write queue length does an incoming req see
system.mem_ctrls.wrQLenPdf::22                  31673                       # What write queue length does an incoming req see
system.mem_ctrls.wrQLenPdf::23                  32345                       # What write queue length does an incoming req see
system.mem_ctrls.wrQLenPdf::24                  32329                       # What write queue length does an incoming req see
system.mem_ctrls.wrQLenPdf::25                  31722                       # What write queue length does an incoming req see
system.mem_ctrls.wrQLenPdf::26                  31851                       # What write queue length does an incoming req see
system.mem_ctrls.wrQLenPdf::27                  31701                       # What write queue length does an incoming req see
system.mem_ctrls.wrQLenPdf::28                  31744                       # What write queue length does an incoming req see
system.mem_ctrls.wrQLenPdf::29                  31398                       # What write queue length does an incoming req see
system.mem_ctrls.wrQLenPdf::30                  31442                       # What write queue length does an incoming req see
system.mem_ctrls.wrQLenPdf::31                  31472                       # What write queue length does an incoming req see
system.mem_ctrls.wrQLenPdf::32                  31294                       # What write queue length does an incoming req see
system.mem_ctrls.wrQLenPdf::33                    128                       # What write queue length does an incoming req see
system.mem_ctrls.wrQLenPdf::34                    101                       # What write queue length does an incoming req see
system.mem_ctrls.wrQLenPdf::35                     93                       # What write queue length does an incoming req see
system.mem_ctrls.wrQLenPdf::36                     77                       # What write queue length does an incoming req see
system.mem_ctrls.wrQLenPdf::37                     64                       # What write queue length does an incoming req see
system.mem_ctrls.wrQLenPdf::38                     52                       # What write queue length does an incoming req see
system.mem_ctrls.wrQLenPdf::39                     42                       # What write queue length does an incoming req see
system.mem_ctrls.wrQLenPdf::40                     34                       # What write queue length does an incoming req see
system.mem_ctrls.wrQLenPdf::41                     27                       # What write queue length does an incoming req see
system.mem_ctrls.wrQLenPdf::42                     18                       # What write queue length does an incoming req see
system.mem_ctrls.wrQLenPdf::43                     10                       # What write queue length does an incoming req see
system.mem_ctrls.wrQLenPdf::44                      5                       # What write queue length does an incoming req see
system.mem_ctrls.wrQLenPdf::45                      1                       # What write queue length does an incoming req see
system.mem_ctrls.wrQLenPdf::46                      0                       # What write queue length does an incoming req see
system.mem_ctrls.wrQLenPdf::47                      0                       # What write queue length does an incoming req see
system.mem_ctrls.wrQLenPdf::48                      0                       # What write queue length does an incoming req see
system.mem_ctrls.wrQLenPdf::49                      0                       # What write queue length does an incoming req see
system.mem_ctrls.wrQLenPdf::50                      0                       # What write queue length does an incoming req see
system.mem_ctrls.wrQLenPdf::51                      0                       # What write queue length does an incoming req see
system.mem_ctrls.wrQLenPdf::52                      0                       # What write queue length does an incoming req see
system.mem_ctrls.wrQLenPdf::53                      0                       # What write queue length does an incoming req see
system.mem_ctrls.wrQLenPdf::54                      0                       # What write queue length does an incoming req see
system.mem_ctrls.wrQLenPdf::55                      0                       # What write queue length does an incoming req see
system.mem_ctrls.wrQLenPdf::56                      0                       # What write queue length does an incoming req see
system.mem_ctrls.wrQLenPdf::57                      0                       # What write queue length does an incoming req see
system.mem_ctrls.wrQLenPdf::58                      0                       # What write queue length does an incoming req see
system.mem_ctrls.wrQLenPdf::59                      0                       # What write queue length does an incoming req see
system.mem_ctrls.wrQLenPdf::60                      0                       # What write queue length does an incoming req see
system.mem_ctrls.wrQLenPdf::61                      0                       # What write queue length does an incoming req see
system.mem_ctrls.wrQLenPdf::62                      0                       # What write queue length does an incoming req see
system.mem_ctrls.wrQLenPdf::63                      0                       # What write queue length does an incoming req see
system.mem_ctrls.bytesPerActivate::samples       161116                       # Bytes accessed per row activation
system.mem_ctrls.bytesPerActivate::mean    425.808784                       # Bytes accessed per row activation
system.mem_ctrls.bytesPerActivate::gmean   251.690200                       # Bytes accessed per row activation
system.mem_ctrls.bytesPerActivate::stdev   383.116284                       # Bytes accessed per row activation
system.mem_ctrls.bytesPerActivate::0-127        46396     28.80%     28.80% # Bytes accessed per row activation
system.mem_ctrls.bytesPerActivate::128-255        30901     19.18%     47.98% # Bytes accessed per row activation
system.mem_ctrls.bytesPerActivate::256-383        15529      9.64%     57.61% # Bytes accessed per row activation
system.mem_ctrls.bytesPerActivate::384-511         9563      5.94%     63.55% # Bytes accessed per row activation
system.mem_ctrls.bytesPerActivate::512-639         8382      5.20%     68.75% # Bytes accessed per row activation
system.mem_ctrls.bytesPerActivate::640-767         5578      3.46%     72.21% # Bytes accessed per row activation
system.mem_ctrls.bytesPerActivate::768-895         4933      3.06%     75.28% # Bytes accessed per row activation
system.mem_ctrls.bytesPerActivate::896-1023         4834      3.00%     78.28% # Bytes accessed per row activation
system.mem_ctrls.bytesPerActivate::1024-1151        35000     21.72%    100.00% # Bytes accessed per row activation
system.mem_ctrls.bytesPerActivate::total       161116                       # Bytes accessed per row activation
system.mem_ctrls.rdPerTurnAround::samples        31228                       # Reads before turning the bus around for writes
system.mem_ctrls.rdPerTurnAround::mean      17.823652                       # Reads before turning the bus around for writes
system.mem_ctrls.rdPerTurnAround::stdev    325.526993                       # Reads before turning the bus around for writes
system.mem_ctrls.rdPerTurnAround::0-2047        31227    100.00%    100.00% # Reads before turning the bus around for writes
system.mem_ctrls.rdPerTurnAround::57344-59391            1      0.00%    100.00% # Reads before turning the bus around for writes
system.mem_ctrls.rdPerTurnAround::total         31228                       # Reads before turning the bus around for writes
system.mem_ctrls.wrPerTurnAround::samples        31228                       # Writes before turning the bus around for reads
system.mem_ctrls.wrPerTurnAround::mean      16.502370                       # Writes before turning the bus around for reads
system.mem_ctrls.wrPerTurnAround::gmean     16.399557                       # Writes before turning the bus around for reads
system.mem_ctrls.wrPerTurnAround::stdev      2.230144                       # Writes before turning the bus around for reads
system.mem_ctrls.wrPerTurnAround::16            29089     93.15%     93.15% # Writes before turning the bus around for reads
system.mem_ctrls.wrPerTurnAround::17               15      0.05%     93.20% # Writes before turning the bus around for reads
system.mem_ctrls.wrPerTurnAround::18              371      1.19%     94.39% # Writes before turning the bus around for reads
system.mem_ctrls.wrPerTurnAround::19               14      0.04%     94.43% # Writes before turning the bus around for reads
system.mem_ctrls.wrPerTurnAround::20               17      0.05%     94.49% # Writes before turning the bus around for reads
system.mem_ctrls.wrPerTurnAround::21              422      1.35%     95.84% # Writes before turning the bus around for reads
system.mem_ctrls.wrPerTurnAround::22              146      0.47%     96.30% # Writes before turning the bus around for reads
system.mem_ctrls.wrPerTurnAround::23               54      0.17%     96.48% # Writes before turning the bus around for reads
system.mem_ctrls.wrPerTurnAround::24              599      1.92%     98.40% # Writes before turning the bus around for reads
system.mem_ctrls.wrPerTurnAround::25              114      0.37%     98.76% # Writes before turning the bus around for reads
system.mem_ctrls.wrPerTurnAround::26                8      0.03%     98.79% # Writes before turning the bus around for reads
system.mem_ctrls.wrPerTurnAround::27               27      0.09%     98.87% # Writes before turning the bus around for reads
system.mem_ctrls.wrPerTurnAround::28              262      0.84%     99.71% # Writes before turning the bus around for reads
system.mem_ctrls.wrPerTurnAround::29                3      0.01%     99.72% # Writes before turning the bus around for reads
system.mem_ctrls.wrPerTurnAround::30                3      0.01%     99.73% # Writes before turning the bus around for reads
system.mem_ctrls.wrPerTurnAround::31                6      0.02%     99.75% # Writes before turning the bus around for reads
system.mem_ctrls.wrPerTurnAround::32                7      0.02%     99.77% # Writes before turning the bus around for reads
system.mem_ctrls.wrPerTurnAround::33                6      0.02%     99.79% # Writes before turning the bus around for reads
system.mem_ctrls.wrPerTurnAround::34                2      0.01%     99.80% # Writes before turning the bus around for reads
system.mem_ctrls.wrPerTurnAround::35                1      0.00%     99.80% # Writes before turning the bus around for reads
system.mem_ctrls.wrPerTurnAround::36                1      0.00%     99.80% # Writes before turning the bus around for reads
system.mem_ctrls.wrPerTurnAround::37                5      0.02%     99.82% # Writes before turning the bus around for reads
system.mem_ctrls.wrPerTurnAround::38                2      0.01%     99.83% # Writes before turning the bus around for reads
system.mem_ctrls.wrPerTurnAround::39                8      0.03%     99.85% # Writes before turning the bus around for reads
system.mem_ctrls.wrPerTurnAround::40                5      0.02%     99.87% # Writes before turning the bus around for reads
system.mem_ctrls.wrPerTurnAround::41                2      0.01%     99.88% # Writes before turning the bus around for reads
system.mem_ctrls.wrPerTurnAround::42                9      0.03%     99.90% # Writes before turning the bus around for reads
system.mem_ctrls.wrPerTurnAround::43                2      0.01%     99.91% # Writes before turning the bus around for reads
system.mem_ctrls.wrPerTurnAround::44                5      0.02%     99.93% # Writes before turning the bus around for reads
system.mem_ctrls.wrPerTurnAround::45                4      0.01%     99.94% # Writes before turning the bus around for reads
system.mem_ctrls.wrPerTurnAround::46                6      0.02%     99.96% # Writes before turning the bus around for reads
system.mem_ctrls.wrPerTurnAround::47                2      0.01%     99.96% # Writes before turning the bus around for reads
system.mem_ctrls.wrPerTurnAround::48                6      0.02%     99.98% # Writes before turning the bus around for reads
system.mem_ctrls.wrPerTurnAround::51                4      0.01%    100.00% # Writes before turning the bus around for reads
system.mem_ctrls.wrPerTurnAround::53                1      0.00%    100.00% # Writes before turning the bus around for reads
system.mem_ctrls.wrPerTurnAround::total         31228                       # Writes before turning the bus around for reads
system.mem_ctrls.totQLat                   7756095750                       # Total ticks spent queuing
system.mem_ctrls.totMemAccLat             18192645750                       # Total ticks spent from burst creation until serviced by the DRAM
system.mem_ctrls.totBusLat                 2783080000                       # Total ticks spent in databus transfers
system.mem_ctrls.avgQLat                     13934.37                       # Average queueing delay per DRAM burst
system.mem_ctrls.avgBusLat                    5000.00                       # Average bus latency per DRAM burst
system.mem_ctrls.avgMemAccLat                32684.37                       # Average memory access latency per DRAM burst
system.mem_ctrls.avgRdBW                         6.68                       # Average DRAM read bandwidth in MiByte/s
system.mem_ctrls.avgWrBW                         6.19                       # Average achieved write bandwidth in MiByte/s
system.mem_ctrls.avgRdBWSys                      6.68                       # Average system read bandwidth in MiByte/s
system.mem_ctrls.avgWrBWSys                      6.19                       # Average system write bandwidth in MiByte/s
system.mem_ctrls.peakBW                      12800.00                       # Theoretical peak bandwidth in MiByte/s
system.mem_ctrls.busUtil                         0.10                       # Data bus utilization in percentage
system.mem_ctrls.busUtilRead                     0.05                       # Data bus utilization in percentage for reads
system.mem_ctrls.busUtilWrite                    0.05                       # Data bus utilization in percentage for writes
system.mem_ctrls.avgRdQLen                       1.00                       # Average read queue length when enqueuing
system.mem_ctrls.avgWrQLen                      24.24                       # Average write queue length when enqueuing
system.mem_ctrls.readRowHits                   484874                       # Number of row buffer hits during reads
system.mem_ctrls.writeRowHits                  425960                       # Number of row buffer hits during writes
system.mem_ctrls.readRowHitRate                 87.11                       # Row buffer hit rate for reads
system.mem_ctrls.writeRowHitRate                82.65                       # Row buffer hit rate for writes
system.mem_ctrls.avgGap                    4972978.28                       # Average gap between requests
system.mem_ctrls.pageHitRate                    84.97                       # Row buffer hit rate, read and write combined
system.mem_ctrls_0.actEnergy                616071960                       # Energy for activate commands per rank (pJ)
system.mem_ctrls_0.preEnergy                336150375                       # Energy for precharge commands per rank (pJ)
system.mem_ctrls_0.readEnergy              2161754400                       # Energy for read commands per rank (pJ)
system.mem_ctrls_0.writeEnergy             1667634480                       # Energy for write commands per rank (pJ)
system.mem_ctrls_0.refreshEnergy         348208489200                       # Energy for refresh commands per rank (pJ)
system.mem_ctrls_0.actBackEnergy         164424828555                       # Energy for active background per rank (pJ)
system.mem_ctrls_0.preBackEnergy         3054491708250                       # Energy for precharge background per rank (pJ)
system.mem_ctrls_0.totalEnergy           3571906637220                       # Total energy per rank (pJ)
system.mem_ctrls_0.averagePower            669.999654                       # Core power per rank (mW)
system.mem_ctrls_0.memoryStateTime::IDLE 5080899109250                       # Time in different power states
system.mem_ctrls_0.memoryStateTime::REF  178020700000                       # Time in different power states
system.mem_ctrls_0.memoryStateTime::PRE_PDN            0                       # Time in different power states
system.mem_ctrls_0.memoryStateTime::ACT   72291500750                       # Time in different power states
system.mem_ctrls_0.memoryStateTime::ACT_PDN            0                       # Time in different power states
system.mem_ctrls_1.actEnergy                601965000                       # Energy for activate commands per rank (pJ)
system.mem_ctrls_1.preEnergy                328453125                       # Energy for precharge commands per rank (pJ)
system.mem_ctrls_1.readEnergy              2179811400                       # Energy for read commands per rank (pJ)
system.mem_ctrls_1.writeEnergy             1671742800                       # Energy for write commands per rank (pJ)
system.mem_ctrls_1.refreshEnergy         348208489200                       # Energy for refresh commands per rank (pJ)
system.mem_ctrls_1.actBackEnergy         163943331030                       # Energy for active background per rank (pJ)
system.mem_ctrls_1.preBackEnergy         3054914074500                       # Energy for precharge background per rank (pJ)
system.mem_ctrls_1.totalEnergy           3571847867055                       # Total energy per rank (pJ)
system.mem_ctrls_1.averagePower            669.988630                       # Core power per rank (mW)
system.mem_ctrls_1.memoryStateTime::IDLE 5081593007500                       # Time in different power states
system.mem_ctrls_1.memoryStateTime::REF  178020700000                       # Time in different power states
system.mem_ctrls_1.memoryStateTime::PRE_PDN            0                       # Time in different power states
system.mem_ctrls_1.memoryStateTime::ACT   71597850000                       # Time in different power states
system.mem_ctrls_1.memoryStateTime::ACT_PDN            0                       # Time in different power states
system.cpu_voltage_domain.voltage                   1                       # Voltage in Volts
system.cpu_clk_domain.clock                       500                       # Clock period in ticks
system.cpu.apic_clk_domain.clock                 8000                       # Clock period in ticks
system.cpu.numCycles                      10662423792                       # number of cpu cycles simulated
system.cpu.numWorkItemsStarted                      0                       # number of work items this cpu started
system.cpu.numWorkItemsCompleted                    0                       # number of work items this cpu completed
system.cpu.committedInsts                    94336565                       # Number of instructions committed
system.cpu.committedOps                     184469477                       # Number of ops (including micro ops) committed
system.cpu.num_int_alu_accesses             175548056                       # Number of integer alu accesses
system.cpu.num_fp_alu_accesses                  41144                       # Number of float alu accesses
system.cpu.num_func_calls                     2320008                       # number of times a function call or return occured
system.cpu.num_conditional_control_insts     16763961                       # number of instructions that are conditional controls
system.cpu.num_int_insts                    175548056                       # number of integer instructions
system.cpu.num_fp_insts                         41144                       # number of float instructions
system.cpu.num_int_register_reads           332573625                       # number of times the integer registers were read
system.cpu.num_int_register_writes          146080937                       # number of times the integer registers were written
system.cpu.num_fp_register_reads                67816                       # number of times the floating registers were read
system.cpu.num_fp_register_writes               32733                       # number of times the floating registers were written
system.cpu.num_cc_register_reads             96827323                       # number of times the CC registers were read
system.cpu.num_cc_register_writes            67200857                       # number of times the CC registers were written
system.cpu.num_mem_refs                      25558970                       # number of memory refs
system.cpu.num_load_insts                    15149290                       # Number of load instructions
system.cpu.num_store_insts                   10409680                       # Number of store instructions
system.cpu.num_idle_cycles               9802769454.566160                       # Number of idle cycles
system.cpu.num_busy_cycles               859654337.433839                       # Number of busy cycles
system.cpu.not_idle_fraction                 0.080625                       # Percentage of non-idle cycles
system.cpu.idle_fraction                     0.919375                       # Percentage of idle cycles
system.cpu.Branches                          20000896                       # Number of branches fetched
system.cpu.op_class::No_OpClass               1141790      0.62%      0.62% # Class of executed instruction
system.cpu.op_class::IntAlu                 157513103     85.39%     86.01% # Class of executed instruction
system.cpu.op_class::IntMult                   123972      0.07%     86.07% # Class of executed instruction
system.cpu.op_class::IntDiv                    109367      0.06%     86.13% # Class of executed instruction
system.cpu.op_class::FloatAdd                   29248      0.02%     86.15% # Class of executed instruction
system.cpu.op_class::FloatCmp                       0      0.00%     86.15% # Class of executed instruction
system.cpu.op_class::FloatCvt                      16      0.00%     86.15% # Class of executed instruction
system.cpu.op_class::FloatMult                      0      0.00%     86.15% # Class of executed instruction
system.cpu.op_class::FloatDiv                       0      0.00%     86.15% # Class of executed instruction
system.cpu.op_class::FloatSqrt                      0      0.00%     86.15% # Class of executed instruction
system.cpu.op_class::SimdAdd                        0      0.00%     86.15% # Class of executed instruction
system.cpu.op_class::SimdAddAcc                     0      0.00%     86.15% # Class of executed instruction
system.cpu.op_class::SimdAlu                        0      0.00%     86.15% # Class of executed instruction
system.cpu.op_class::SimdCmp                        0      0.00%     86.15% # Class of executed instruction
system.cpu.op_class::SimdCvt                        0      0.00%     86.15% # Class of executed instruction
system.cpu.op_class::SimdMisc                       0      0.00%     86.15% # Class of executed instruction
system.cpu.op_class::SimdMult                       0      0.00%     86.15% # Class of executed instruction
system.cpu.op_class::SimdMultAcc                    0      0.00%     86.15% # Class of executed instruction
system.cpu.op_class::SimdShift                      0      0.00%     86.15% # Class of executed instruction
system.cpu.op_class::SimdShiftAcc                   0      0.00%     86.15% # Class of executed instruction
system.cpu.op_class::SimdSqrt                       0      0.00%     86.15% # Class of executed instruction
system.cpu.op_class::SimdFloatAdd                   0      0.00%     86.15% # Class of executed instruction
system.cpu.op_class::SimdFloatAlu                   0      0.00%     86.15% # Class of executed instruction
system.cpu.op_class::SimdFloatCmp                   0      0.00%     86.15% # Class of executed instruction
system.cpu.op_class::SimdFloatCvt                   0      0.00%     86.15% # Class of executed instruction
system.cpu.op_class::SimdFloatDiv                   0      0.00%     86.15% # Class of executed instruction
system.cpu.op_class::SimdFloatMisc                  0      0.00%     86.15% # Class of executed instruction
system.cpu.op_class::SimdFloatMult                  0      0.00%     86.15% # Class of executed instruction
system.cpu.op_class::SimdFloatMultAcc               0      0.00%     86.15% # Class of executed instruction
system.cpu.op_class::SimdFloatSqrt                  0      0.00%     86.15% # Class of executed instruction
system.cpu.op_class::MemRead                 15144327      8.21%     94.36% # Class of executed instruction
system.cpu.op_class::MemWrite                10409680      5.64%    100.00% # Class of executed instruction
system.cpu.op_class::IprAccess                      0      0.00%    100.00% # Class of executed instruction
system.cpu.op_class::InstPrefetch                   0      0.00%    100.00% # Class of executed instruction
system.cpu.op_class::total                  184471503                       # Class of executed instruction
system.cpu.kern.inst.arm                            0                       # number of arm instructions executed
system.cpu.kern.inst.quiesce                        0                       # number of quiesce instructions executed
system.iobus.trans_dist::ReadReq               842202                       # Transaction distribution
system.iobus.trans_dist::ReadResp              842202                       # Transaction distribution
system.iobus.trans_dist::WriteReq               12563                       # Transaction distribution
system.iobus.trans_dist::WriteResp              12563                       # Transaction distribution
system.iobus.trans_dist::MessageReq              1615                       # Transaction distribution
system.iobus.trans_dist::MessageResp             1615                       # Transaction distribution
system.iobus.pkt_count_system.pc.south_bridge.io_apic.int_master::system.ruby.l1_cntrl0.sequencer.pio-slave-port         3230                       # Packet count per connected master and slave (bytes)
system.iobus.pkt_count_system.pc.south_bridge.io_apic.int_master::total         3230                       # Packet count per connected master and slave (bytes)
system.iobus.pkt_count_system.ruby.l1_cntrl0.sequencer.mem-master-port::system.pc.south_bridge.cmos.pio           48                       # Packet count per connected master and slave (bytes)
system.iobus.pkt_count_system.ruby.l1_cntrl0.sequencer.mem-master-port::system.pc.south_bridge.dma1.pio            6                       # Packet count per connected master and slave (bytes)
system.iobus.pkt_count_system.ruby.l1_cntrl0.sequencer.mem-master-port::system.pc.south_bridge.ide.pio         6810                       # Packet count per connected master and slave (bytes)
system.iobus.pkt_count_system.ruby.l1_cntrl0.sequencer.mem-master-port::system.pc.south_bridge.ide-pciconf          180                       # Packet count per connected master and slave (bytes)
system.iobus.pkt_count_system.ruby.l1_cntrl0.sequencer.mem-master-port::system.pc.south_bridge.keyboard.pio         1364                       # Packet count per connected master and slave (bytes)
system.iobus.pkt_count_system.ruby.l1_cntrl0.sequencer.mem-master-port::system.pc.south_bridge.pic1.pio          130                       # Packet count per connected master and slave (bytes)
system.iobus.pkt_count_system.ruby.l1_cntrl0.sequencer.mem-master-port::system.pc.south_bridge.pic2.pio           54                       # Packet count per connected master and slave (bytes)
system.iobus.pkt_count_system.ruby.l1_cntrl0.sequencer.mem-master-port::system.pc.south_bridge.pit.pio           30                       # Packet count per connected master and slave (bytes)
system.iobus.pkt_count_system.ruby.l1_cntrl0.sequencer.mem-master-port::system.pc.south_bridge.speaker.pio       934582                       # Packet count per connected master and slave (bytes)
system.iobus.pkt_count_system.ruby.l1_cntrl0.sequencer.mem-master-port::system.pc.south_bridge.io_apic.pio         1554                       # Packet count per connected master and slave (bytes)
system.iobus.pkt_count_system.ruby.l1_cntrl0.sequencer.mem-master-port::system.pc.i_dont_exist1.pio          174                       # Packet count per connected master and slave (bytes)
system.iobus.pkt_count_system.ruby.l1_cntrl0.sequencer.mem-master-port::system.pc.behind_pci.pio            2                       # Packet count per connected master and slave (bytes)
system.iobus.pkt_count_system.ruby.l1_cntrl0.sequencer.mem-master-port::system.pc.com_1.pio        29328                       # Packet count per connected master and slave (bytes)
system.iobus.pkt_count_system.ruby.l1_cntrl0.sequencer.mem-master-port::system.pc.fake_com_2.pio           12                       # Packet count per connected master and slave (bytes)
system.iobus.pkt_count_system.ruby.l1_cntrl0.sequencer.mem-master-port::system.pc.fake_com_3.pio           12                       # Packet count per connected master and slave (bytes)
system.iobus.pkt_count_system.ruby.l1_cntrl0.sequencer.mem-master-port::system.pc.fake_com_4.pio           12                       # Packet count per connected master and slave (bytes)
system.iobus.pkt_count_system.ruby.l1_cntrl0.sequencer.mem-master-port::system.pc.fake_floppy.pio           10                       # Packet count per connected master and slave (bytes)
system.iobus.pkt_count_system.ruby.l1_cntrl0.sequencer.mem-master-port::system.ruby.l1_cntrl0.sequencer.pio-slave-port       733096                       # Packet count per connected master and slave (bytes)
system.iobus.pkt_count_system.ruby.l1_cntrl0.sequencer.mem-master-port::system.pc.pciconfig.pio         2126                       # Packet count per connected master and slave (bytes)
system.iobus.pkt_count_system.ruby.l1_cntrl0.sequencer.mem-master-port::total      1709530                       # Packet count per connected master and slave (bytes)
system.iobus.pkt_count::total                 1712760                       # Packet count per connected master and slave (bytes)
system.iobus.pkt_size_system.pc.south_bridge.io_apic.int_master::system.ruby.l1_cntrl0.sequencer.pio-slave-port         6460                       # Cumulative packet size per connected master and slave (bytes)
system.iobus.pkt_size_system.pc.south_bridge.io_apic.int_master::total         6460                       # Cumulative packet size per connected master and slave (bytes)
system.iobus.pkt_size_system.ruby.l1_cntrl0.sequencer.mem-master-port::system.pc.south_bridge.cmos.pio           24                       # Cumulative packet size per connected master and slave (bytes)
system.iobus.pkt_size_system.ruby.l1_cntrl0.sequencer.mem-master-port::system.pc.south_bridge.dma1.pio            3                       # Cumulative packet size per connected master and slave (bytes)
system.iobus.pkt_size_system.ruby.l1_cntrl0.sequencer.mem-master-port::system.pc.south_bridge.ide.pio         4268                       # Cumulative packet size per connected master and slave (bytes)
system.iobus.pkt_size_system.ruby.l1_cntrl0.sequencer.mem-master-port::system.pc.south_bridge.ide-pciconf          221                       # Cumulative packet size per connected master and slave (bytes)
system.iobus.pkt_size_system.ruby.l1_cntrl0.sequencer.mem-master-port::system.pc.south_bridge.keyboard.pio          682                       # Cumulative packet size per connected master and slave (bytes)
system.iobus.pkt_size_system.ruby.l1_cntrl0.sequencer.mem-master-port::system.pc.south_bridge.pic1.pio           65                       # Cumulative packet size per connected master and slave (bytes)
system.iobus.pkt_size_system.ruby.l1_cntrl0.sequencer.mem-master-port::system.pc.south_bridge.pic2.pio           27                       # Cumulative packet size per connected master and slave (bytes)
system.iobus.pkt_size_system.ruby.l1_cntrl0.sequencer.mem-master-port::system.pc.south_bridge.pit.pio           15                       # Cumulative packet size per connected master and slave (bytes)
system.iobus.pkt_size_system.ruby.l1_cntrl0.sequencer.mem-master-port::system.pc.south_bridge.speaker.pio       467291                       # Cumulative packet size per connected master and slave (bytes)
system.iobus.pkt_size_system.ruby.l1_cntrl0.sequencer.mem-master-port::system.pc.south_bridge.io_apic.pio         3108                       # Cumulative packet size per connected master and slave (bytes)
system.iobus.pkt_size_system.ruby.l1_cntrl0.sequencer.mem-master-port::system.pc.i_dont_exist1.pio           87                       # Cumulative packet size per connected master and slave (bytes)
system.iobus.pkt_size_system.ruby.l1_cntrl0.sequencer.mem-master-port::system.pc.behind_pci.pio            1                       # Cumulative packet size per connected master and slave (bytes)
system.iobus.pkt_size_system.ruby.l1_cntrl0.sequencer.mem-master-port::system.pc.com_1.pio        14664                       # Cumulative packet size per connected master and slave (bytes)
system.iobus.pkt_size_system.ruby.l1_cntrl0.sequencer.mem-master-port::system.pc.fake_com_2.pio            6                       # Cumulative packet size per connected master and slave (bytes)
system.iobus.pkt_size_system.ruby.l1_cntrl0.sequencer.mem-master-port::system.pc.fake_com_3.pio            6                       # Cumulative packet size per connected master and slave (bytes)
system.iobus.pkt_size_system.ruby.l1_cntrl0.sequencer.mem-master-port::system.pc.fake_com_4.pio            6                       # Cumulative packet size per connected master and slave (bytes)
system.iobus.pkt_size_system.ruby.l1_cntrl0.sequencer.mem-master-port::system.pc.fake_floppy.pio            5                       # Cumulative packet size per connected master and slave (bytes)
system.iobus.pkt_size_system.ruby.l1_cntrl0.sequencer.mem-master-port::system.ruby.l1_cntrl0.sequencer.pio-slave-port      1466186                       # Cumulative packet size per connected master and slave (bytes)
system.iobus.pkt_size_system.ruby.l1_cntrl0.sequencer.mem-master-port::system.pc.pciconfig.pio         4252                       # Cumulative packet size per connected master and slave (bytes)
system.iobus.pkt_size_system.ruby.l1_cntrl0.sequencer.mem-master-port::total      1960917                       # Cumulative packet size per connected master and slave (bytes)
system.iobus.pkt_size::total                  1967377                       # Cumulative packet size per connected master and slave (bytes)
system.iobus.reqLayer0.occupancy                47000                       # Layer occupancy (ticks)
system.iobus.reqLayer0.utilization                0.0                       # Layer utilization (%)
system.iobus.reqLayer1.occupancy                 6500                       # Layer occupancy (ticks)
system.iobus.reqLayer1.utilization                0.0                       # Layer utilization (%)
system.iobus.reqLayer2.occupancy              5984000                       # Layer occupancy (ticks)
system.iobus.reqLayer2.utilization                0.0                       # Layer utilization (%)
system.iobus.reqLayer3.occupancy               146000                       # Layer occupancy (ticks)
system.iobus.reqLayer3.utilization                0.0                       # Layer utilization (%)
system.iobus.reqLayer4.occupancy              1070000                       # Layer occupancy (ticks)
system.iobus.reqLayer4.utilization                0.0                       # Layer utilization (%)
system.iobus.reqLayer5.occupancy               135500                       # Layer occupancy (ticks)
system.iobus.reqLayer5.utilization                0.0                       # Layer utilization (%)
system.iobus.reqLayer6.occupancy                57000                       # Layer occupancy (ticks)
system.iobus.reqLayer6.utilization                0.0                       # Layer utilization (%)
system.iobus.reqLayer7.occupancy                27500                       # Layer occupancy (ticks)
system.iobus.reqLayer7.utilization                0.0                       # Layer utilization (%)
system.iobus.reqLayer8.occupancy            467292000                       # Layer occupancy (ticks)
system.iobus.reqLayer8.utilization                0.0                       # Layer utilization (%)
system.iobus.reqLayer9.occupancy              1430500                       # Layer occupancy (ticks)
system.iobus.reqLayer9.utilization                0.0                       # Layer utilization (%)
system.iobus.reqLayer10.occupancy              190500                       # Layer occupancy (ticks)
system.iobus.reqLayer10.utilization               0.0                       # Layer utilization (%)
system.iobus.reqLayer12.occupancy                2500                       # Layer occupancy (ticks)
system.iobus.reqLayer12.utilization               0.0                       # Layer utilization (%)
system.iobus.reqLayer13.occupancy            24348000                       # Layer occupancy (ticks)
system.iobus.reqLayer13.utilization               0.0                       # Layer utilization (%)
system.iobus.reqLayer14.occupancy               12000                       # Layer occupancy (ticks)
system.iobus.reqLayer14.utilization               0.0                       # Layer utilization (%)
system.iobus.reqLayer15.occupancy               12000                       # Layer occupancy (ticks)
system.iobus.reqLayer15.utilization               0.0                       # Layer utilization (%)
system.iobus.reqLayer16.occupancy               12000                       # Layer occupancy (ticks)
system.iobus.reqLayer16.utilization               0.0                       # Layer utilization (%)
system.iobus.reqLayer17.occupancy               10000                       # Layer occupancy (ticks)
system.iobus.reqLayer17.utilization               0.0                       # Layer utilization (%)
system.iobus.reqLayer18.occupancy           465335400                       # Layer occupancy (ticks)
system.iobus.reqLayer18.utilization               0.0                       # Layer utilization (%)
system.iobus.reqLayer20.occupancy             1329000                       # Layer occupancy (ticks)
system.iobus.reqLayer20.utilization               0.0                       # Layer utilization (%)
system.iobus.respLayer0.occupancy             2346900                       # Layer occupancy (ticks)
system.iobus.respLayer0.utilization               0.0                       # Layer utilization (%)
system.iobus.respLayer2.occupancy          1792515000                       # Layer occupancy (ticks)
system.iobus.respLayer2.utilization               0.0                       # Layer utilization (%)
system.pc.south_bridge.ide.disks0.dma_read_full_pages            9                       # Number of full page size DMA reads (not PRD).
system.pc.south_bridge.ide.disks0.dma_read_bytes        36864                       # Number of bytes transfered via DMA reads (not PRD).
system.pc.south_bridge.ide.disks0.dma_read_txs            9                       # Number of DMA read transactions (not PRD).
system.pc.south_bridge.ide.disks0.dma_write_full_pages          673                       # Number of full page size DMA writes.
system.pc.south_bridge.ide.disks0.dma_write_bytes      2759680                       # Number of bytes transfered via DMA writes.
system.pc.south_bridge.ide.disks0.dma_write_txs          677                       # Number of DMA write transactions.
system.pc.south_bridge.ide.disks1.dma_read_full_pages            0                       # Number of full page size DMA reads (not PRD).
system.pc.south_bridge.ide.disks1.dma_read_bytes            0                       # Number of bytes transfered via DMA reads (not PRD).
system.pc.south_bridge.ide.disks1.dma_read_txs            0                       # Number of DMA read transactions (not PRD).
system.pc.south_bridge.ide.disks1.dma_write_full_pages            1                       # Number of full page size DMA writes.
system.pc.south_bridge.ide.disks1.dma_write_bytes         4096                       # Number of bytes transfered via DMA writes.
system.pc.south_bridge.ide.disks1.dma_write_txs            1                       # Number of DMA write transactions.
system.ruby.clk_domain.clock                      500                       # Clock period in ticks
system.ruby.delayHist::bucket_size                  2                       # delay histogram for all message
system.ruby.delayHist::max_bucket                  19                       # delay histogram for all message
system.ruby.delayHist::samples               10914219                       # delay histogram for all message
system.ruby.delayHist::mean                  0.552818                       # delay histogram for all message
system.ruby.delayHist::stdev                 2.029053                       # delay histogram for all message
system.ruby.delayHist                    |    10160005     93.09%     93.09% |          33      0.00%     93.09% |          15      0.00%     93.09% |          23      0.00%     93.09% |      754087      6.91%    100.00% |          49      0.00%    100.00% |           0      0.00%    100.00% |           0      0.00%    100.00% |           0      0.00%    100.00% |           7      0.00%    100.00% # delay histogram for all message
system.ruby.delayHist::total                 10914219                       # delay histogram for all message
system.ruby.outstanding_req_hist::bucket_size            1                      
system.ruby.outstanding_req_hist::max_bucket            9                      
system.ruby.outstanding_req_hist::samples    144003143                      
system.ruby.outstanding_req_hist::mean       1.000109                      
system.ruby.outstanding_req_hist::gmean      1.000076                      
system.ruby.outstanding_req_hist::stdev      0.010451                      
system.ruby.outstanding_req_hist         |           0      0.00%      0.00% |   143987414     99.99%     99.99% |       15729      0.01%    100.00% |           0      0.00%    100.00% |           0      0.00%    100.00% |           0      0.00%    100.00% |           0      0.00%    100.00% |           0      0.00%    100.00% |           0      0.00%    100.00% |           0      0.00%    100.00%
system.ruby.outstanding_req_hist::total     144003143                      
system.ruby.latency_hist::bucket_size             256                      
system.ruby.latency_hist::max_bucket             2559                      
system.ruby.latency_hist::samples           144003142                      
system.ruby.latency_hist::mean               3.772889                      
system.ruby.latency_hist::gmean              3.118828                      
system.ruby.latency_hist::stdev             11.111025                      
system.ruby.latency_hist                 |   143964829     99.97%     99.97% |       24678      0.02%     99.99% |       12153      0.01%    100.00% |        1056      0.00%    100.00% |         366      0.00%    100.00% |          52      0.00%    100.00% |           7      0.00%    100.00% |           1      0.00%    100.00% |           0      0.00%    100.00% |           0      0.00%    100.00%
system.ruby.latency_hist::total             144003142                      
system.ruby.hit_latency_hist::bucket_size            1                      
system.ruby.hit_latency_hist::max_bucket            9                      
system.ruby.hit_latency_hist::samples       141587677                      
system.ruby.hit_latency_hist::mean                  3                      
system.ruby.hit_latency_hist::gmean          3.000000                      
system.ruby.hit_latency_hist             |           0      0.00%      0.00% |           0      0.00%      0.00% |           0      0.00%      0.00% |   141587677    100.00%    100.00% |           0      0.00%    100.00% |           0      0.00%    100.00% |           0      0.00%    100.00% |           0      0.00%    100.00% |           0      0.00%    100.00% |           0      0.00%    100.00%
system.ruby.hit_latency_hist::total         141587677                      
system.ruby.miss_latency_hist::bucket_size          256                      
system.ruby.miss_latency_hist::max_bucket         2559                      
system.ruby.miss_latency_hist::samples        2415465                      
system.ruby.miss_latency_hist::mean         49.077428                      
system.ruby.miss_latency_hist::gmean        30.400070                      
system.ruby.miss_latency_hist::stdev        72.612079                      
system.ruby.miss_latency_hist            |     2377152     98.41%     98.41% |       24678      1.02%     99.44% |       12153      0.50%     99.94% |        1056      0.04%     99.98% |         366      0.02%    100.00% |          52      0.00%    100.00% |           7      0.00%    100.00% |           1      0.00%    100.00% |           0      0.00%    100.00% |           0      0.00%    100.00%
system.ruby.miss_latency_hist::total          2415465                      
system.ruby.l1_cntrl0.L1Dcache.demand_hits     23054822                       # Number of cache demand hits
system.ruby.l1_cntrl0.L1Dcache.demand_misses      1676196                       # Number of cache demand misses
system.ruby.l1_cntrl0.L1Dcache.demand_accesses     24731018                       # Number of cache demand accesses
system.ruby.l1_cntrl0.L1Icache.demand_hits    118532855                       # Number of cache demand hits
system.ruby.l1_cntrl0.L1Icache.demand_misses       739269                       # Number of cache demand misses
system.ruby.l1_cntrl0.L1Icache.demand_accesses    119272124                       # Number of cache demand accesses
system.ruby.l1_cntrl0.prefetcher.miss_observed            0                       # number of misses observed
system.ruby.l1_cntrl0.prefetcher.allocated_streams            0                       # number of streams allocated for prefetching
system.ruby.l1_cntrl0.prefetcher.prefetches_requested            0                       # number of prefetch requests made
system.ruby.l1_cntrl0.prefetcher.prefetches_accepted            0                       # number of prefetch requests accepted
system.ruby.l1_cntrl0.prefetcher.dropped_prefetches            0                       # number of prefetch requests dropped
system.ruby.l1_cntrl0.prefetcher.hits               0                       # number of prefetched blocks accessed
system.ruby.l1_cntrl0.prefetcher.partial_hits            0                       # number of misses observed for a block being prefetched
system.ruby.l1_cntrl0.prefetcher.pages_crossed            0                       # number of prefetches across pages
system.ruby.l1_cntrl0.prefetcher.misses_on_prefetched_blocks            0                       # number of misses for blocks that were prefetched, yet missed
system.ruby.l1_cntrl0.fully_busy_cycles             8                       # cycles for which number of transistions == max transitions
system.ruby.l2_cntrl0.L2cache.demand_hits      1859415                       # Number of cache demand hits
system.ruby.l2_cntrl0.L2cache.demand_misses       556050                       # Number of cache demand misses
system.ruby.l2_cntrl0.L2cache.demand_accesses      2415465                       # Number of cache demand accesses
system.ruby.memctrl_clk_domain.clock             1500                       # Clock period in ticks
system.ruby.network.routers0.percent_links_utilized     0.082592                      
system.ruby.network.routers0.msg_count.Control::0      2415465                      
system.ruby.network.routers0.msg_count.Request_Control::2         4201                      
system.ruby.network.routers0.msg_count.Response_Data::1      2415465                      
system.ruby.network.routers0.msg_count.Response_Control::1      1678402                      
system.ruby.network.routers0.msg_count.Response_Control::2      1676191                      
system.ruby.network.routers0.msg_count.Writeback_Data::0       754093                      
system.ruby.network.routers0.msg_count.Writeback_Data::1          469                      
system.ruby.network.routers0.msg_count.Writeback_Control::0       920577                      
system.ruby.network.routers0.msg_bytes.Control::0     19323720                      
system.ruby.network.routers0.msg_bytes.Request_Control::2        33608                      
system.ruby.network.routers0.msg_bytes.Response_Data::1    173913480                      
system.ruby.network.routers0.msg_bytes.Response_Control::1     13427216                      
system.ruby.network.routers0.msg_bytes.Response_Control::2     13409528                      
system.ruby.network.routers0.msg_bytes.Writeback_Data::0     54294696                      
system.ruby.network.routers0.msg_bytes.Writeback_Data::1        33768                      
system.ruby.network.routers0.msg_bytes.Writeback_Control::0      7364616                      
system.ruby.network.routers1.percent_links_utilized     0.106832                      
system.ruby.network.routers1.msg_count.Control::0      2971515                      
system.ruby.network.routers1.msg_count.Request_Control::2         4201                      
system.ruby.network.routers1.msg_count.Response_Data::1      3445715                      
system.ruby.network.routers1.msg_count.Response_Control::1      2188662                      
system.ruby.network.routers1.msg_count.Response_Control::2      1676191                      
system.ruby.network.routers1.msg_count.Writeback_Data::0       754093                      
system.ruby.network.routers1.msg_count.Writeback_Data::1          469                      
system.ruby.network.routers1.msg_count.Writeback_Control::0       920577                      
system.ruby.network.routers1.msg_bytes.Control::0     23772120                      
system.ruby.network.routers1.msg_bytes.Request_Control::2        33608                      
system.ruby.network.routers1.msg_bytes.Response_Data::1    248091480                      
system.ruby.network.routers1.msg_bytes.Response_Control::1     17509296                      
system.ruby.network.routers1.msg_bytes.Response_Control::2     13409528                      
system.ruby.network.routers1.msg_bytes.Writeback_Data::0     54294696                      
system.ruby.network.routers1.msg_bytes.Writeback_Data::1        33768                      
system.ruby.network.routers1.msg_bytes.Writeback_Control::0      7364616                      
system.ruby.network.routers2.percent_links_utilized     0.024461                      
system.ruby.network.routers2.msg_count.Control::0       556050                      
system.ruby.network.routers2.msg_count.Response_Data::1      1031004                      
system.ruby.network.routers2.msg_count.Response_Control::1       510260                      
system.ruby.network.routers2.msg_count.Writeback_Control::0        43938                      
system.ruby.network.routers2.msg_count.Writeback_Control::1        43184                      
system.ruby.network.routers2.msg_bytes.Control::0      4448400                      
system.ruby.network.routers2.msg_bytes.Response_Data::1     74232288                      
system.ruby.network.routers2.msg_bytes.Response_Control::1      4082080                      
system.ruby.network.routers2.msg_bytes.Writeback_Control::0       351504                      
system.ruby.network.routers2.msg_bytes.Writeback_Control::1       345472                      
system.ruby.network.routers3.percent_links_utilized     0.000220                      
system.ruby.network.routers3.msg_count.Response_Data::1          754                      
system.ruby.network.routers3.msg_count.Writeback_Control::0        43938                      
system.ruby.network.routers3.msg_count.Writeback_Control::1        43184                      
system.ruby.network.routers3.msg_bytes.Response_Data::1        54288                      
system.ruby.network.routers3.msg_bytes.Writeback_Control::0       351504                      
system.ruby.network.routers3.msg_bytes.Writeback_Control::1       345472                      
system.ruby.network.routers4.percent_links_utilized            0                      
system.ruby.network.routers5.percent_links_utilized     0.042821                      
system.ruby.network.routers5.msg_count.Control::0      2971515                      
system.ruby.network.routers5.msg_count.Request_Control::2         4201                      
system.ruby.network.routers5.msg_count.Response_Data::1      3446469                      
system.ruby.network.routers5.msg_count.Response_Control::1      2188662                      
system.ruby.network.routers5.msg_count.Response_Control::2      1676191                      
system.ruby.network.routers5.msg_count.Writeback_Data::0       754093                      
system.ruby.network.routers5.msg_count.Writeback_Data::1          469                      
system.ruby.network.routers5.msg_count.Writeback_Control::0       964515                      
system.ruby.network.routers5.msg_count.Writeback_Control::1        43184                      
system.ruby.network.routers5.msg_bytes.Control::0     23772120                      
system.ruby.network.routers5.msg_bytes.Request_Control::2        33608                      
system.ruby.network.routers5.msg_bytes.Response_Data::1    248145768                      
system.ruby.network.routers5.msg_bytes.Response_Control::1     17509296                      
system.ruby.network.routers5.msg_bytes.Response_Control::2     13409528                      
system.ruby.network.routers5.msg_bytes.Writeback_Data::0     54294696                      
system.ruby.network.routers5.msg_bytes.Writeback_Data::1        33768                      
system.ruby.network.routers5.msg_bytes.Writeback_Control::0      7716120                      
system.ruby.network.routers5.msg_bytes.Writeback_Control::1       345472                      
system.ruby.network.msg_count.Control         8914545                      
system.ruby.network.msg_count.Request_Control        12603                      
system.ruby.network.msg_count.Response_Data     10339407                      
system.ruby.network.msg_count.Response_Control     11594559                      
system.ruby.network.msg_count.Writeback_Data      2263686                      
system.ruby.network.msg_count.Writeback_Control      3023097                      
system.ruby.network.msg_byte.Control         71316360                      
system.ruby.network.msg_byte.Request_Control       100824                      
system.ruby.network.msg_byte.Response_Data    744437304                      
system.ruby.network.msg_byte.Response_Control     92756472                      
system.ruby.network.msg_byte.Writeback_Data    162985392                      
system.ruby.network.msg_byte.Writeback_Control     24184776                      
system.ruby.network.routers0.throttle0.link_utilization     0.109816                      
system.ruby.network.routers0.throttle0.msg_count.Request_Control::2         4201                      
system.ruby.network.routers0.throttle0.msg_count.Response_Data::1      2415465                      
system.ruby.network.routers0.throttle0.msg_count.Response_Control::1      1674670                      
system.ruby.network.routers0.throttle0.msg_bytes.Request_Control::2        33608                      
system.ruby.network.routers0.throttle0.msg_bytes.Response_Data::1    173913480                      
system.ruby.network.routers0.throttle0.msg_bytes.Response_Control::1     13397360                      
system.ruby.network.routers0.throttle1.link_utilization     0.055367                      
system.ruby.network.routers0.throttle1.msg_count.Control::0      2415465                      
system.ruby.network.routers0.throttle1.msg_count.Response_Control::1         3732                      
system.ruby.network.routers0.throttle1.msg_count.Response_Control::2      1676191                      
system.ruby.network.routers0.throttle1.msg_count.Writeback_Data::0       754093                      
system.ruby.network.routers0.throttle1.msg_count.Writeback_Data::1          469                      
system.ruby.network.routers0.throttle1.msg_count.Writeback_Control::0       920577                      
system.ruby.network.routers0.throttle1.msg_bytes.Control::0     19323720                      
system.ruby.network.routers0.throttle1.msg_bytes.Response_Control::1        29856                      
system.ruby.network.routers0.throttle1.msg_bytes.Response_Control::2     13409528                      
system.ruby.network.routers0.throttle1.msg_bytes.Writeback_Data::0     54294696                      
system.ruby.network.routers0.throttle1.msg_bytes.Writeback_Data::1        33768                      
system.ruby.network.routers0.throttle1.msg_bytes.Writeback_Control::0      7364616                      
system.ruby.network.routers1.throttle0.link_utilization     0.081148                      
system.ruby.network.routers1.throttle0.msg_count.Control::0      2415465                      
system.ruby.network.routers1.throttle0.msg_count.Response_Data::1       556050                      
system.ruby.network.routers1.throttle0.msg_count.Response_Control::1       497038                      
system.ruby.network.routers1.throttle0.msg_count.Response_Control::2      1676191                      
system.ruby.network.routers1.throttle0.msg_count.Writeback_Data::0       754093                      
system.ruby.network.routers1.throttle0.msg_count.Writeback_Data::1          469                      
system.ruby.network.routers1.throttle0.msg_count.Writeback_Control::0       920577                      
system.ruby.network.routers1.throttle0.msg_bytes.Control::0     19323720                      
system.ruby.network.routers1.throttle0.msg_bytes.Response_Data::1     40035600                      
system.ruby.network.routers1.throttle0.msg_bytes.Response_Control::1      3976304                      
system.ruby.network.routers1.throttle0.msg_bytes.Response_Control::2     13409528                      
system.ruby.network.routers1.throttle0.msg_bytes.Writeback_Data::0     54294696                      
system.ruby.network.routers1.throttle0.msg_bytes.Writeback_Data::1        33768                      
system.ruby.network.routers1.throttle0.msg_bytes.Writeback_Control::0      7364616                      
system.ruby.network.routers1.throttle1.link_utilization     0.132516                      
system.ruby.network.routers1.throttle1.msg_count.Control::0       556050                      
system.ruby.network.routers1.throttle1.msg_count.Request_Control::2         4201                      
system.ruby.network.routers1.throttle1.msg_count.Response_Data::1      2889665                      
system.ruby.network.routers1.throttle1.msg_count.Response_Control::1      1691624                      
system.ruby.network.routers1.throttle1.msg_bytes.Control::0      4448400                      
system.ruby.network.routers1.throttle1.msg_bytes.Request_Control::2        33608                      
system.ruby.network.routers1.throttle1.msg_bytes.Response_Data::1    208055880                      
system.ruby.network.routers1.throttle1.msg_bytes.Response_Control::1     13532992                      
system.ruby.network.routers2.throttle0.link_utilization     0.022906                      
system.ruby.network.routers2.throttle0.msg_count.Control::0       556050                      
system.ruby.network.routers2.throttle0.msg_count.Response_Data::1       474200                      
system.ruby.network.routers2.throttle0.msg_count.Response_Control::1        16954                      
system.ruby.network.routers2.throttle0.msg_count.Writeback_Control::0        43938                      
system.ruby.network.routers2.throttle0.msg_bytes.Control::0      4448400                      
system.ruby.network.routers2.throttle0.msg_bytes.Response_Data::1     34142400                      
system.ruby.network.routers2.throttle0.msg_bytes.Response_Control::1       135632                      
system.ruby.network.routers2.throttle0.msg_bytes.Writeback_Control::0       351504                      
system.ruby.network.routers2.throttle1.link_utilization     0.026015                      
system.ruby.network.routers2.throttle1.msg_count.Response_Data::1       556804                      
system.ruby.network.routers2.throttle1.msg_count.Response_Control::1       493306                      
system.ruby.network.routers2.throttle1.msg_count.Writeback_Control::1        43184                      
system.ruby.network.routers2.throttle1.msg_bytes.Response_Data::1     40089888                      
system.ruby.network.routers2.throttle1.msg_bytes.Response_Control::1      3946448                      
system.ruby.network.routers2.throttle1.msg_bytes.Writeback_Control::1       345472                      
system.ruby.network.routers3.throttle0.link_utilization     0.000234                      
system.ruby.network.routers3.throttle0.msg_count.Response_Data::1          754                      
system.ruby.network.routers3.throttle0.msg_count.Writeback_Control::1        43184                      
system.ruby.network.routers3.throttle0.msg_bytes.Response_Data::1        54288                      
system.ruby.network.routers3.throttle0.msg_bytes.Writeback_Control::1       345472                      
system.ruby.network.routers3.throttle1.link_utilization     0.000206                      
system.ruby.network.routers3.throttle1.msg_count.Writeback_Control::0        43938                      
system.ruby.network.routers3.throttle1.msg_bytes.Writeback_Control::0       351504                      
system.ruby.network.routers4.throttle0.link_utilization            0                      
system.ruby.network.routers4.throttle1.link_utilization            0                      
system.ruby.network.routers5.throttle0.link_utilization     0.109816                      
system.ruby.network.routers5.throttle0.msg_count.Request_Control::2         4201                      
[...]
system.ruby.LD.miss_latency_hist::mean      86.623938                      
system.ruby.LD.miss_latency_hist::gmean     52.257596                      
system.ruby.LD.miss_latency_hist::stdev     94.079851                      
system.ruby.LD.miss_latency_hist         |     4068279     97.25%     97.25% |       77165      1.84%     99.09% |       34737      0.83%     99.92% |        1488      0.04%     99.96% |        1169      0.03%     99.99% |         325      0.01%    100.00% |         156      0.00%    100.00% |          32      0.00%    100.00% |          14      0.00%    100.00% |           2      0.00%    100.00%
system.ruby.LD.miss_latency_hist::total       4183367                      
system.ruby.ST.latency_hist::bucket_size          256                      
system.ruby.ST.latency_hist::max_bucket          2559                      
system.ruby.ST.latency_hist::samples          8750576                      
system.ruby.ST.latency_hist::mean            3.748946                      
system.ruby.ST.latency_hist::gmean           3.065493                      
system.ruby.ST.latency_hist::stdev          12.159943                      
system.ruby.ST.latency_hist              |     8748291     99.97%     99.97% |        1140      0.01%     99.99% |        1054      0.01%    100.00% |          54      0.00%    100.00% |          25      0.00%    100.00% |          11      0.00%    100.00% |           1      0.00%    100.00% |           0      0.00%    100.00% |           0      0.00%    100.00% |           0      0.00%    100.00%
system.ruby.ST.latency_hist::total            8750576                      
system.ruby.ST.hit_latency_hist::bucket_size            1                      
system.ruby.ST.hit_latency_hist::max_bucket            9                      
system.ruby.ST.hit_latency_hist::samples      8697609                      
system.ruby.ST.hit_latency_hist::mean               3                      
system.ruby.ST.hit_latency_hist::gmean       3.000000                      
system.ruby.ST.hit_latency_hist          |           0      0.00%      0.00% |           0      0.00%      0.00% |           0      0.00%      0.00% |     8697609    100.00%    100.00% |           0      0.00%    100.00% |           0      0.00%    100.00% |           0      0.00%    100.00% |           0      0.00%    100.00% |           0      0.00%    100.00% |           0      0.00%    100.00%
system.ruby.ST.hit_latency_hist::total        8697609                      
system.ruby.ST.miss_latency_hist::bucket_size          256                      
system.ruby.ST.miss_latency_hist::max_bucket         2559                      
system.ruby.ST.miss_latency_hist::samples        52967                      
system.ruby.ST.miss_latency_hist::mean     126.731852                      
system.ruby.ST.miss_latency_hist::gmean    106.320155                      
system.ruby.ST.miss_latency_hist::stdev     95.977233                      
system.ruby.ST.miss_latency_hist         |       50682     95.69%     95.69% |        1140      2.15%     97.84% |        1054      1.99%     99.83% |          54      0.10%     99.93% |          25      0.05%     99.98% |          11      0.02%    100.00% |           1      0.00%    100.00% |           0      0.00%    100.00% |           0      0.00%    100.00% |           0      0.00%    100.00%
system.ruby.ST.miss_latency_hist::total         52967                      
system.ruby.IFETCH.latency_hist::bucket_size          128                      
system.ruby.IFETCH.latency_hist::max_bucket         1279                      
system.ruby.IFETCH.latency_hist::samples    116401672                      
system.ruby.IFETCH.latency_hist::mean        3.013157                      
system.ruby.IFETCH.latency_hist::gmean       3.001168                      
system.ruby.IFETCH.latency_hist::stdev       1.556342                      
system.ruby.IFETCH.latency_hist          |   116396266    100.00%    100.00% |        4973      0.00%    100.00% |          69      0.00%    100.00% |         211      0.00%    100.00% |         117      0.00%    100.00% |          30      0.00%    100.00% |           3      0.00%    100.00% |           1      0.00%    100.00% |           1      0.00%    100.00% |           1      0.00%    100.00%
system.ruby.IFETCH.latency_hist::total      116401672                      
system.ruby.IFETCH.hit_latency_hist::bucket_size            1                      
system.ruby.IFETCH.hit_latency_hist::max_bucket            9                      
system.ruby.IFETCH.hit_latency_hist::samples    116387856                      
system.ruby.IFETCH.hit_latency_hist::mean            3                      
system.ruby.IFETCH.hit_latency_hist::gmean     3.000000                      
system.ruby.IFETCH.hit_latency_hist      |           0      0.00%      0.00% |           0      0.00%      0.00% |           0      0.00%      0.00% |   116387856    100.00%    100.00% |           0      0.00%    100.00% |           0      0.00%    100.00% |           0      0.00%    100.00% |           0      0.00%    100.00% |           0      0.00%    100.00% |           0      0.00%    100.00%
system.ruby.IFETCH.hit_latency_hist::total    116387856                      
system.ruby.IFETCH.miss_latency_hist::bucket_size          128                      
system.ruby.IFETCH.miss_latency_hist::max_bucket         1279                      
system.ruby.IFETCH.miss_latency_hist::samples        13816                      
system.ruby.IFETCH.miss_latency_hist::mean   113.853358                      
system.ruby.IFETCH.miss_latency_hist::gmean    79.612358                      
system.ruby.IFETCH.miss_latency_hist::stdev    90.116324                      
system.ruby.IFETCH.miss_latency_hist     |        8410     60.87%     60.87% |        4973     35.99%     96.87% |          69      0.50%     97.37% |         211      1.53%     98.89% |         117      0.85%     99.74% |          30      0.22%     99.96% |           3      0.02%     99.98% |           1      0.01%     99.99% |           1      0.01%     99.99% |           1      0.01%    100.00%
system.ruby.IFETCH.miss_latency_hist::total        13816                      
system.ruby.RMW_Read.latency_hist::bucket_size          128                      
system.ruby.RMW_Read.latency_hist::max_bucket         1279                      
system.ruby.RMW_Read.latency_hist::samples       736496                      
system.ruby.RMW_Read.latency_hist::mean      3.114837                      
system.ruby.RMW_Read.latency_hist::gmean     3.023118                      
system.ruby.RMW_Read.latency_hist::stdev     3.461854                      
system.ruby.RMW_Read.latency_hist        |      736283     99.97%     99.97% |         206      0.03%    100.00% |           1      0.00%    100.00% |           2      0.00%    100.00% |           2      0.00%    100.00% |           1      0.00%    100.00% |           1      0.00%    100.00% |           0      0.00%    100.00% |           0      0.00%    100.00% |           0      0.00%    100.00%
system.ruby.RMW_Read.latency_hist::total       736496                      
system.ruby.RMW_Read.hit_latency_hist::bucket_size            1                      
system.ruby.RMW_Read.hit_latency_hist::max_bucket            9                      
system.ruby.RMW_Read.hit_latency_hist::samples       733834                      
system.ruby.RMW_Read.hit_latency_hist::mean            3                      
system.ruby.RMW_Read.hit_latency_hist::gmean     3.000000                      
system.ruby.RMW_Read.hit_latency_hist    |           0      0.00%      0.00% |           0      0.00%      0.00% |           0      0.00%      0.00% |      733834    100.00%    100.00% |           0      0.00%    100.00% |           0      0.00%    100.00% |           0      0.00%    100.00% |           0      0.00%    100.00% |           0      0.00%    100.00% |           0      0.00%    100.00%
system.ruby.RMW_Read.hit_latency_hist::total       733834                      
system.ruby.RMW_Read.miss_latency_hist::bucket_size          128                      
system.ruby.RMW_Read.miss_latency_hist::max_bucket         1279                      
system.ruby.RMW_Read.miss_latency_hist::samples         2662                      
system.ruby.RMW_Read.miss_latency_hist::mean    34.771976                      
system.ruby.RMW_Read.miss_latency_hist::gmean    25.089408                      
system.ruby.RMW_Read.miss_latency_hist::stdev    48.070671                      
system.ruby.RMW_Read.miss_latency_hist   |        2449     92.00%     92.00% |         206      7.74%     99.74% |           1      0.04%     99.77% |           2      0.08%     99.85% |           2      0.08%     99.92% |           1      0.04%     99.96% |           1      0.04%    100.00% |           0      0.00%    100.00% |           0      0.00%    100.00% |           0      0.00%    100.00%
system.ruby.RMW_Read.miss_latency_hist::total         2662                      
system.ruby.Locked_RMW_Read.latency_hist::bucket_size          256                      
system.ruby.Locked_RMW_Read.latency_hist::max_bucket         2559                      
system.ruby.Locked_RMW_Read.latency_hist::samples      2262374                      
system.ruby.Locked_RMW_Read.latency_hist::mean    71.321015                      
system.ruby.Locked_RMW_Read.latency_hist::gmean    19.691283                      
system.ruby.Locked_RMW_Read.latency_hist::stdev    93.806424                      
system.ruby.Locked_RMW_Read.latency_hist |     2214477     97.88%     97.88% |       33840      1.50%     99.38% |       13495      0.60%     99.98% |         292      0.01%     99.99% |         265      0.01%    100.00% |           4      0.00%    100.00% |           1      0.00%    100.00% |           0      0.00%    100.00% |           0      0.00%    100.00% |           0      0.00%    100.00%
system.ruby.Locked_RMW_Read.latency_hist::total      2262374                      
system.ruby.Locked_RMW_Read.hit_latency_hist::bucket_size            1                      
system.ruby.Locked_RMW_Read.hit_latency_hist::max_bucket            9                      
system.ruby.Locked_RMW_Read.hit_latency_hist::samples       994740                      
system.ruby.Locked_RMW_Read.hit_latency_hist::mean            3                      
system.ruby.Locked_RMW_Read.hit_latency_hist::gmean     3.000000                      
system.ruby.Locked_RMW_Read.hit_latency_hist |           0      0.00%      0.00% |           0      0.00%      0.00% |           0      0.00%      0.00% |      994740    100.00%    100.00% |           0      0.00%    100.00% |           0      0.00%    100.00% |           0      0.00%    100.00% |           0      0.00%    100.00% |           0      0.00%    100.00% |           0      0.00%    100.00%
system.ruby.Locked_RMW_Read.hit_latency_hist::total       994740                      
system.ruby.Locked_RMW_Read.miss_latency_hist::bucket_size          256                      
system.ruby.Locked_RMW_Read.miss_latency_hist::max_bucket         2559                      
system.ruby.Locked_RMW_Read.miss_latency_hist::samples      1267634                      
system.ruby.Locked_RMW_Read.miss_latency_hist::mean   124.934002                      
system.ruby.Locked_RMW_Read.miss_latency_hist::gmean    86.200859                      
system.ruby.Locked_RMW_Read.miss_latency_hist::stdev    95.747964                      
system.ruby.Locked_RMW_Read.miss_latency_hist |     1219737     96.22%     96.22% |       33840      2.67%     98.89% |       13495      1.06%     99.96% |         292      0.02%     99.98% |         265      0.02%    100.00% |           4      0.00%    100.00% |           1      0.00%    100.00% |           0      0.00%    100.00% |           0      0.00%    100.00% |           0      0.00%    100.00%
system.ruby.Locked_RMW_Read.miss_latency_hist::total      1267634                      
system.ruby.Locked_RMW_Write.latency_hist::bucket_size            1                      
system.ruby.Locked_RMW_Write.latency_hist::max_bucket            9                      
system.ruby.Locked_RMW_Write.latency_hist::samples      2262374                      
system.ruby.Locked_RMW_Write.latency_hist::mean            3                      
system.ruby.Locked_RMW_Write.latency_hist::gmean     3.000000                      
system.ruby.Locked_RMW_Write.latency_hist |           0      0.00%      0.00% |           0      0.00%      0.00% |           0      0.00%      0.00% |     2262374    100.00%    100.00% |           0      0.00%    100.00% |           0      0.00%    100.00% |           0      0.00%    100.00% |           0      0.00%    100.00% |           0      0.00%    100.00% |           0      0.00%    100.00%
system.ruby.Locked_RMW_Write.latency_hist::total      2262374                      
system.ruby.Locked_RMW_Write.hit_latency_hist::bucket_size            1                      
system.ruby.Locked_RMW_Write.hit_latency_hist::max_bucket            9                      
system.ruby.Locked_RMW_Write.hit_latency_hist::samples      2262374                      
system.ruby.Locked_RMW_Write.hit_latency_hist::mean            3                      
system.ruby.Locked_RMW_Write.hit_latency_hist::gmean     3.000000                      
system.ruby.Locked_RMW_Write.hit_latency_hist |           0      0.00%      0.00% |           0      0.00%      0.00% |           0      0.00%      0.00% |     2262374    100.00%    100.00% |           0      0.00%    100.00% |           0      0.00%    100.00% |           0      0.00%    100.00% |           0      0.00%    100.00% |           0      0.00%    100.00% |           0      0.00%    100.00%
system.ruby.Locked_RMW_Write.hit_latency_hist::total      2262374                      
system.ruby.Directory_Controller.Fetch        2920859      0.00%      0.00%
system.ruby.Directory_Controller.Data         1732081      0.00%      0.00%
system.ruby.Directory_Controller.Memory_Data      2920859      0.00%      0.00%
system.ruby.Directory_Controller.Memory_Ack      1732081      0.00%      0.00%
system.ruby.Directory_Controller.CleanReplacement      1188778      0.00%      0.00%
system.ruby.Directory_Controller.I.Fetch      2920859      0.00%      0.00%
system.ruby.Directory_Controller.M.Data       1732081      0.00%      0.00%
system.ruby.Directory_Controller.M.CleanReplacement      1188778      0.00%      0.00%
system.ruby.Directory_Controller.IM.Memory_Data      2920859      0.00%      0.00%
system.ruby.Directory_Controller.MI.Memory_Ack      1732081      0.00%      0.00%
system.ruby.L1Cache_Controller.Load          32434930      0.00%      0.00%
system.ruby.L1Cache_Controller.Ifetch       116401672      0.00%      0.00%
system.ruby.L1Cache_Controller.Store         14011820      0.00%      0.00%
system.ruby.L1Cache_Controller.Inv               7862      0.00%      0.00%
system.ruby.L1Cache_Controller.L1_Replacement      5514075      0.00%      0.00%
system.ruby.L1Cache_Controller.Data_Exclusive      4183367      0.00%      0.00%
system.ruby.L1Cache_Controller.Data_all_Acks      1337079      0.00%      0.00%
system.ruby.L1Cache_Controller.WB_Ack         5506475      0.00%      0.00%
system.ruby.L1Cache_Controller.NP.Load        4183249      0.00%      0.00%
system.ruby.L1Cache_Controller.NP.Ifetch         7599      0.00%      0.00%
system.ruby.L1Cache_Controller.NP.Store       1323227      0.00%      0.00%
system.ruby.L1Cache_Controller.NP.Inv             762      0.00%      0.00%
system.ruby.L1Cache_Controller.I.Load             118      0.00%      0.00%
system.ruby.L1Cache_Controller.I.Ifetch          6217      0.00%      0.00%
system.ruby.L1Cache_Controller.I.Store             36      0.00%      0.00%
system.ruby.L1Cache_Controller.I.L1_Replacement          890      0.00%      0.00%
system.ruby.L1Cache_Controller.S.Ifetch     116387856      0.00%      0.00%
system.ruby.L1Cache_Controller.S.Inv             6945      0.00%      0.00%
system.ruby.L1Cache_Controller.S.L1_Replacement         6710      0.00%      0.00%
system.ruby.L1Cache_Controller.E.Load        20190354      0.00%      0.00%
system.ruby.L1Cache_Controller.E.Store         917781      0.00%      0.00%
system.ruby.L1Cache_Controller.E.Inv               97      0.00%      0.00%
system.ruby.L1Cache_Controller.E.L1_Replacement      3265872      0.00%      0.00%
system.ruby.L1Cache_Controller.M.Load         8061209      0.00%      0.00%
system.ruby.L1Cache_Controller.M.Store       11770776      0.00%      0.00%
system.ruby.L1Cache_Controller.M.Inv               58      0.00%      0.00%
system.ruby.L1Cache_Controller.M.L1_Replacement      2240603      0.00%      0.00%
system.ruby.L1Cache_Controller.IS.Data_Exclusive      4183367      0.00%      0.00%
system.ruby.L1Cache_Controller.IS.Data_all_Acks        13816      0.00%      0.00%
system.ruby.L1Cache_Controller.IM.Data_all_Acks      1323263      0.00%      0.00%
system.ruby.L1Cache_Controller.M_I.WB_Ack      5506475      0.00%      0.00%
system.ruby.L2Cache_Controller.L1_GET_INSTR        13816      0.00%      0.00%
system.ruby.L2Cache_Controller.L1_GETS        4183367      0.00%      0.00%
system.ruby.L2Cache_Controller.L1_GETX        1323263      0.00%      0.00%
system.ruby.L2Cache_Controller.L1_PUTX        5506475      0.00%      0.00%
system.ruby.L2Cache_Controller.L2_Replacement      1732050      0.00%      0.00%
system.ruby.L2Cache_Controller.L2_Replacement_clean      1188809      0.00%      0.00%
system.ruby.L2Cache_Controller.Mem_Data       2920859      0.00%      0.00%
system.ruby.L2Cache_Controller.Mem_Ack        2920859      0.00%      0.00%
system.ruby.L2Cache_Controller.WB_Data             58      0.00%      0.00%
system.ruby.L2Cache_Controller.Ack_all           7804      0.00%      0.00%
system.ruby.L2Cache_Controller.Exclusive_Unblock      5506630      0.00%      0.00%
system.ruby.L2Cache_Controller.NP.L1_GET_INSTR         9815      0.00%      0.00%
system.ruby.L2Cache_Controller.NP.L1_GETS      1975628      0.00%      0.00%
system.ruby.L2Cache_Controller.NP.L1_GETX       935416      0.00%      0.00%
system.ruby.L2Cache_Controller.SS.L1_GET_INSTR         4001      0.00%      0.00%
system.ruby.L2Cache_Controller.SS.L2_Replacement            1      0.00%      0.00%
system.ruby.L2Cache_Controller.SS.L2_Replacement_clean         7706      0.00%      0.00%
system.ruby.L2Cache_Controller.M.L1_GETS      2207739      0.00%      0.00%
system.ruby.L2Cache_Controller.M.L1_GETX       387847      0.00%      0.00%
system.ruby.L2Cache_Controller.M.L2_Replacement      1732021      0.00%      0.00%
system.ruby.L2Cache_Controller.M.L2_Replacement_clean      1180976      0.00%      0.00%
system.ruby.L2Cache_Controller.MT.L1_PUTX      5506475      0.00%      0.00%
system.ruby.L2Cache_Controller.MT.L2_Replacement           28      0.00%      0.00%
system.ruby.L2Cache_Controller.MT.L2_Replacement_clean          127      0.00%      0.00%
system.ruby.L2Cache_Controller.M_I.Mem_Ack      2920859      0.00%      0.00%
system.ruby.L2Cache_Controller.MT_I.WB_Data           27      0.00%      0.00%
system.ruby.L2Cache_Controller.MT_I.Ack_all            1      0.00%      0.00%
system.ruby.L2Cache_Controller.MCT_I.WB_Data           31      0.00%      0.00%
system.ruby.L2Cache_Controller.MCT_I.Ack_all           96      0.00%      0.00%
system.ruby.L2Cache_Controller.I_I.Ack_all         7706      0.00%      0.00%
system.ruby.L2Cache_Controller.S_I.Ack_all            1      0.00%      0.00%
system.ruby.L2Cache_Controller.ISS.Mem_Data      1975628      0.00%      0.00%
system.ruby.L2Cache_Controller.IS.Mem_Data         9815      0.00%      0.00%
system.ruby.L2Cache_Controller.IM.Mem_Data       935416      0.00%      0.00%
system.ruby.L2Cache_Controller.MT_MB.Exclusive_Unblock      5506630      0.00%      0.00%

---------- End Simulation Statistics   ----------
