
---------- Begin Simulation Statistics ----------
sim_seconds                                  5.335400                       # Number of seconds simulated
sim_ticks                                5335399648500                       # Number of ticks simulated
final_tick                               5335399648500                       # Number of ticks from beginning of simulation (restored from checkpoints and never reset)
sim_freq                                 1000000000000                       # Frequency of simulated ticks
host_inst_rate                                 354678                       # Simulator instruction rate (inst/s)
host_op_rate                                   693506                       # Simulator op (including micro ops) rate (op/s)
host_tick_rate                            20047746983                       # Simulator tick rate (ticks/s)
host_mem_usage                                1124884                       # Number of bytes of host memory used
host_seconds                                   266.13                       # Real time elapsed on the host
sim_insts                                    94392062                       # Number of instructions simulated
sim_ops                                     184565924                       # Number of ops (including micro ops) simulated
system.voltage_domain.voltage                       1                       # Voltage in Volts
system.clk_domain.clock                          1000                       # Clock period in ticks
system.mem_ctrls.bytes_read::ruby.dir_cntrl0     35568768                       # Number of bytes read from this memory
system.mem_ctrls.bytes_read::total           35568768                       # Number of bytes read from this memory
system.mem_ctrls.bytes_written::ruby.dir_cntrl0     32960704                       # Number of bytes written to this memory
system.mem_ctrls.bytes_written::total        32960704                       # Number of bytes written to this memory
system.mem_ctrls.num_reads::ruby.dir_cntrl0       555762                       # Number of read requests responded to by this memory
system.mem_ctrls.num_reads::total              555762                       # Number of read requests responded to by this memory
system.mem_ctrls.num_writes::ruby.dir_cntrl0       515011                       # Number of write requests responded to by this memory
system.mem_ctrls.num_writes::total             515011                       # Number of write requests responded to by this memory
system.mem_ctrls.bw_read::ruby.dir_cntrl0      6666561                       # Total read bandwidth from this memory (bytes/s)
system.mem_ctrls.bw_read::total               6666561                       # Total read bandwidth from this memory (bytes/s)
system.mem_ctrls.bw_write::ruby.dir_cntrl0      6177739                       # Write bandwidth from this memory (bytes/s)
system.mem_ctrls.bw_write::total              6177739                       # Write bandwidth from this memory (bytes/s)
system.mem_ctrls.bw_total::ruby.dir_cntrl0     12844300                       # Total bandwidth to/from this memory (bytes/s)
system.mem_ctrls.bw_total::total             12844300                       # Total bandwidth to/from this memory (bytes/s)
system.mem_ctrls.readReqs                      555762                       # Number of read requests accepted
system.mem_ctrls.writeReqs                     515011                       # Number of write requests accepted
system.mem_ctrls.readBursts                    555762                       # Number of DRAM read bursts, including those serviced by the write queue
system.mem_ctrls.writeBursts                   515011                       # Number of DRAM write bursts, including those merged in the write queue
system.mem_ctrls.bytesReadDRAM               35565696                       # Total number of bytes read from DRAM
system.mem_ctrls.bytesReadWrQ                    3072                       # Total number of bytes read from write queue
system.mem_ctrls.bytesWritten                32958848                       # Total number of bytes written to DRAM
system.mem_ctrls.bytesReadSys                35568768                       # Total read bytes from the system interface side
system.mem_ctrls.bytesWrittenSys             32960704                       # Total written bytes from the system interface side
system.mem_ctrls.servicedByWrQ                     48                       # Number of DRAM read bursts serviced by the write queue
system.mem_ctrls.mergedWrBursts                     5                       # Number of DRAM write bursts merged with an existing one
system.mem_ctrls.neitherReadNorWriteReqs            0                       # Number of requests that are neither read nor write
system.mem_ctrls.perBankRdBursts::0             33907                       # Per bank write bursts
system.mem_ctrls.perBankRdBursts::1             33774                       # Per bank write bursts
system.mem_ctrls.perBankRdBursts::2             34410                       # Per bank write bursts
system.mem_ctrls.perBankRdBursts::3             34314                       # Per bank write bursts
system.mem_ctrls.perBankRdBursts::4             34864                       # Per bank write bursts
system.mem_ctrls.perBankRdBursts::5             34738                       # Per bank write bursts
system.mem_ctrls.perBankRdBursts::6             35306                       # Per bank write bursts
system.mem_ctrls.perBankRdBursts::7             34976                       # Per bank write bursts
system.mem_ctrls.perBankRdBursts::8             34718                       # Per bank write bursts
system.mem_ctrls.perBankRdBursts::9             34672                       # Per bank write bursts
system.mem_ctrls.perBankRdBursts::10            35086                       # Per bank write bursts
system.mem_ctrls.perBankRdBursts::11            35530                       # Per bank write bursts
system.mem_ctrls.perBankRdBursts::12            35326                       # Per bank write bursts
system.mem_ctrls.perBankRdBursts::13            35153                       # Per bank write bursts
system.mem_ctrls.perBankRdBursts::14            34666                       # Per bank write bursts
system.mem_ctrls.perBankRdBursts::15            34274                       # Per bank write bursts
system.mem_ctrls.perBankWrBursts::0             31911                       # Per bank write bursts
system.mem_ctrls.perBankWrBursts::1             31510                       # Per bank write bursts
system.mem_ctrls.perBankWrBursts::2             32117                       # Per bank write bursts
system.mem_ctrls.perBankWrBursts::3             32245                       # Per bank write bursts
system.mem_ctrls.perBankWrBursts::4             32415                       # Per bank write bursts
system.mem_ctrls.perBankWrBursts::5             32238                       # Per bank write bursts
system.mem_ctrls.perBankWrBursts::6             32677                       # Per bank write bursts
system.mem_ctrls.perBankWrBursts::7             32643                       # Per bank write bursts
system.mem_ctrls.perBankWrBursts::8             31914                       # Per bank write bursts
system.mem_ctrls.perBankWrBursts::9             31843                       # Per bank write bursts
system.mem_ctrls.perBankWrBursts::10            32208                       # Per bank write bursts
system.mem_ctrls.perBankWrBursts::11            32669                       # Per bank write bursts
system.mem_ctrls.perBankWrBursts::12            32510                       # Per bank write bursts
system.mem_ctrls.perBankWrBursts::13            32402                       # Per bank write bursts
system.mem_ctrls.perBankWrBursts::14            32002                       # Per bank write bursts
system.mem_ctrls.perBankWrBursts::15            31678                       # Per bank write bursts
system.mem_ctrls.numRdRetry                         0                       # Number of times read queue was full causing retry
system.mem_ctrls.numWrRetry                         0                       # Number of times write queue was full causing retry
system.mem_ctrls.totGap                  5335399495500                       # Total gap between requests
system.mem_ctrls.readPktSize::0                     0                       # Read request sizes (log2)
system.mem_ctrls.readPktSize::1                     0                       # Read request sizes (log2)
system.mem_ctrls.readPktSize::2                     0                       # Read request sizes (log2)
system.mem_ctrls.readPktSize::3                     0                       # Read request sizes (log2)
system.mem_ctrls.readPktSize::4                     0                       # Read request sizes (log2)
system.mem_ctrls.readPktSize::5                     0                       # Read request sizes (log2)
system.mem_ctrls.readPktSize::6                555762                       # Read request sizes (log2)
system.mem_ctrls.writePktSize::0                    0                       # Write request sizes (log2)
system.mem_ctrls.writePktSize::1                    0                       # Write request sizes (log2)
system.mem_ctrls.writePktSize::2                    0                       # Write request sizes (log2)
system.mem_ctrls.writePktSize::3                    0                       # Write request sizes (log2)
system.mem_ctrls.writePktSize::4                    0                       # Write request sizes (log2)
system.mem_ctrls.writePktSize::5                    0                       # Write request sizes (log2)
system.mem_ctrls.writePktSize::6               515011                       # Write request sizes (log2)
system.mem_ctrls.rdQLenPdf::0                  555708                       # What read queue length does an incoming req see
system.mem_ctrls.rdQLenPdf::1                       6                       # What read queue length does an incoming req see
system.mem_ctrls.rdQLenPdf::2                       0                       # What read queue length does an incoming req see
system.mem_ctrls.rdQLenPdf::3                       0                       # What read queue length does an incoming req see
system.mem_ctrls.rdQLenPdf::4                       0                       # What read queue length does an incoming req see
system.mem_ctrls.rdQLenPdf::5                       0                       # What read queue length does an incoming req see
system.mem_ctrls.rdQLenPdf::6                       0                       # What read queue length does an incoming req see
system.mem_ctrls.rdQLenPdf::7                       0                       # What read queue length does an incoming req see
system.mem_ctrls.rdQLenPdf::8                       0                       # What read queue length does an incoming req see
system.mem_ctrls.rdQLenPdf::9                       0                       # What read queue length does an incoming req see
system.mem_ctrls.rdQLenPdf::10                      0                       # What read queue length does an incoming req see
system.mem_ctrls.rdQLenPdf::11                      0                       # What read queue length does an incoming req see
system.mem_ctrls.rdQLenPdf::12                      0                       # What read queue length does an incoming req see
system.mem_ctrls.rdQLenPdf::13                      0                       # What read queue length does an incoming req see
system.mem_ctrls.rdQLenPdf::14                      0                       # What read queue length does an incoming req see
system.mem_ctrls.rdQLenPdf::15                      0                       # What read queue length does an incoming req see
system.mem_ctrls.rdQLenPdf::16                      0                       # What read queue length does an incoming req see
system.mem_ctrls.rdQLenPdf::17                      0                       # What read queue length does an incoming req see
system.mem_ctrls.rdQLenPdf::18                      0                       # What read queue length does an incoming req see
system.mem_ctrls.rdQLenPdf::19                      0                       # What read queue length does an incoming req see
system.mem_ctrls.rdQLenPdf::20                      0                       # What read queue length does an incoming req see
system.mem_ctrls.rdQLenPdf::21                      0                       # What read queue length does an incoming req see
system.mem_ctrls.rdQLenPdf::22                      0                       # What read queue length does an incoming req see
system.mem_ctrls.rdQLenPdf::23                      0                       # What read queue length does an incoming req see
system.mem_ctrls.rdQLenPdf::24                      0                       # What read queue length does an incoming req see
system.mem_ctrls.rdQLenPdf::25                      0                       # What read queue length does an incoming req see
system.mem_ctrls.rdQLenPdf::26                      0                       # What read queue length does an incoming req see
system.mem_ctrls.rdQLenPdf::27                      0                       # What read queue length does an incoming req see
system.mem_ctrls.rdQLenPdf::28                      0                       # What read queue length does an incoming req see
system.mem_ctrls.rdQLenPdf::29                      0                       # What read queue length does an incoming req see
system.mem_ctrls.rdQLenPdf::30                      0                       # What read queue length does an incoming req see
system.mem_ctrls.rdQLenPdf::31                      0                       # What read queue length does an incoming req see
system.mem_ctrls.wrQLenPdf::0                       1                       # What write queue length does an incoming req see
system.mem_ctrls.wrQLenPdf::1                       1                       # What write queue length does an incoming req see
system.mem_ctrls.wrQLenPdf::2                       1                       # What write queue length does an incoming req see
system.mem_ctrls.wrQLenPdf::3                       1                       # What write queue length does an incoming req see
system.mem_ctrls.wrQLenPdf::4                       1                       # What write queue length does an incoming req see
system.mem_ctrls.wrQLenPdf::5                       1                       # What write queue length does an incoming req see
system.mem_ctrls.wrQLenPdf::6                       1                       # What write queue length does an incoming req see
system.mem_ctrls.wrQLenPdf::7                       1                       # What write queue length does an incoming req see
system.mem_ctrls.wrQLenPdf::8                       1                       # What write queue length does an incoming req see
system.mem_ctrls.wrQLenPdf::9                       1                       # What write queue length does an incoming req see
system.mem_ctrls.wrQLenPdf::10                      1                       # What write queue length does an incoming req see
system.mem_ctrls.wrQLenPdf::11                      1                       # What write queue length does an incoming req see
system.mem_ctrls.wrQLenPdf::12                      1                       # What write queue length does an incoming req see
system.mem_ctrls.wrQLenPdf::13                      1                       # What write queue length does an incoming req see
system.mem_ctrls.wrQLenPdf::14                      1                       # What write queue length does an incoming req see
system.mem_ctrls.wrQLenPdf::15                   1974                       # What write queue length does an incoming req see
system.mem_ctrls.wrQLenPdf::16                   3120                       # What write queue length does an incoming req see
system.mem_ctrls.wrQLenPdf::17                  31760                       # What write queue length does an incoming req see
system.mem_ctrls.wrQLenPdf::18                  32335                       # What write queue length does an incoming req see
system.mem_ctrls.wrQLenPdf::19                  31879                       # What write queue length does an incoming req see
system.mem_ctrls.wrQLenPdf::20                  32424                       # What write queue length does an incoming req see
system.mem_ctrls.wrQLenPdf::21                  32391                       # What write queue length does an incoming req see
system.mem_ctrls.wrQLenPdf::22                  31615                       # What write queue length does an incoming req see
system.mem_ctrls.wrQLenPdf::23                  32258                       # What write queue length does an incoming req see
system.mem_ctrls.wrQLenPdf::24                  32320                       # What write queue length does an incoming req see
system.mem_ctrls.wrQLenPdf::25                  31672                       # What write queue length does an incoming req see
system.mem_ctrls.wrQLenPdf::26                  31745                       # What write queue length does an incoming req see
system.mem_ctrls.wrQLenPdf::27                  31650                       # What write queue length does an incoming req see
system.mem_ctrls.wrQLenPdf::28                  31730                       # What write queue length does an incoming req see
system.mem_ctrls.wrQLenPdf::29                  31319                       # What write queue length does an incoming req see
system.mem_ctrls.wrQLenPdf::30                  31394                       # What write queue length does an incoming req see
system.mem_ctrls.wrQLenPdf::31                  31466                       # What write queue length does an incoming req see
system.mem_ctrls.wrQLenPdf::32                  31248                       # What write queue length does an incoming req see
system.mem_ctrls.wrQLenPdf::33                    116                       # What write queue length does an incoming req see
system.mem_ctrls.wrQLenPdf::34                     98                       # What write queue length does an incoming req see
system.mem_ctrls.wrQLenPdf::35                    102                       # What write queue length does an incoming req see
system.mem_ctrls.wrQLenPdf::36                     81                       # What write queue length does an incoming req see
system.mem_ctrls.wrQLenPdf::37                     74                       # What write queue length does an incoming req see
system.mem_ctrls.wrQLenPdf::38                     64                       # What write queue length does an incoming req see
system.mem_ctrls.wrQLenPdf::39                     50                       # What write queue length does an incoming req see
system.mem_ctrls.wrQLenPdf::40                     38                       # What write queue length does an incoming req see
system.mem_ctrls.wrQLenPdf::41                     26                       # What write queue length does an incoming req see
system.mem_ctrls.wrQLenPdf::42                     21                       # What write queue length does an incoming req see
system.mem_ctrls.wrQLenPdf::43                     11                       # What write queue length does an incoming req see
system.mem_ctrls.wrQLenPdf::44                      6                       # What write queue length does an incoming req see
system.mem_ctrls.wrQLenPdf::45                      2                       # What write queue length does an incoming req see
system.mem_ctrls.wrQLenPdf::46                      1                       # What write queue length does an incoming req see
system.mem_ctrls.wrQLenPdf::47                      1                       # What write queue length does an incoming req see
system.mem_ctrls.wrQLenPdf::48                      0                       # What write queue length does an incoming req see
system.mem_ctrls.wrQLenPdf::49                      0                       # What write queue length does an incoming req see
system.mem_ctrls.wrQLenPdf::50                      0                       # What write queue length does an incoming req see
system.mem_ctrls.wrQLenPdf::51                      0                       # What write queue length does an incoming req see
system.mem_ctrls.wrQLenPdf::52                      0                       # What write queue length does an incoming req see
system.mem_ctrls.wrQLenPdf::53                      0                       # What write queue length does an incoming req see
system.mem_ctrls.wrQLenPdf::54                      0                       # What write queue length does an incoming req see
system.mem_ctrls.wrQLenPdf::55                      0                       # What write queue length does an incoming req see
system.mem_ctrls.wrQLenPdf::56                      0                       # What write queue length does an incoming req see
system.mem_ctrls.wrQLenPdf::57                      0                       # What write queue length does an incoming req see
system.mem_ctrls.wrQLenPdf::58                      0                       # What write queue length does an incoming req see
system.mem_ctrls.wrQLenPdf::59                      0                       # What write queue length does an incoming req see
system.mem_ctrls.wrQLenPdf::60                      0                       # What write queue length does an incoming req see
system.mem_ctrls.wrQLenPdf::61                      0                       # What write queue length does an incoming req see
system.mem_ctrls.wrQLenPdf::62                      0                       # What write queue length does an incoming req see
system.mem_ctrls.wrQLenPdf::63                      0                       # What write queue length does an incoming req see
system.mem_ctrls.bytesPerActivate::samples       152420                       # Bytes accessed per row activation
system.mem_ctrls.bytesPerActivate::mean    449.575016                       # Bytes accessed per row activation
system.mem_ctrls.bytesPerActivate::gmean   271.226091                       # Bytes accessed per row activation
system.mem_ctrls.bytesPerActivate::stdev   386.045136                       # Bytes accessed per row activation
system.mem_ctrls.bytesPerActivate::0-127        40144     26.34%     26.34% # Bytes accessed per row activation
system.mem_ctrls.bytesPerActivate::128-255        27882     18.29%     44.63% # Bytes accessed per row activation
system.mem_ctrls.bytesPerActivate::256-383        14657      9.62%     54.25% # Bytes accessed per row activation
system.mem_ctrls.bytesPerActivate::384-511         9806      6.43%     60.68% # Bytes accessed per row activation
system.mem_ctrls.bytesPerActivate::512-639         8825      5.79%     66.47% # Bytes accessed per row activation
system.mem_ctrls.bytesPerActivate::640-767         5850      3.84%     70.31% # Bytes accessed per row activation
system.mem_ctrls.bytesPerActivate::768-895         4765      3.13%     73.43% # Bytes accessed per row activation
system.mem_ctrls.bytesPerActivate::896-1023         4915      3.22%     76.66% # Bytes accessed per row activation
system.mem_ctrls.bytesPerActivate::1024-1151        35576     23.34%    100.00% # Bytes accessed per row activation
system.mem_ctrls.bytesPerActivate::total       152420                       # Bytes accessed per row activation
system.mem_ctrls.rdPerTurnAround::samples        31196                       # Reads before turning the bus around for writes
system.mem_ctrls.rdPerTurnAround::mean      17.813341                       # Reads before turning the bus around for writes
system.mem_ctrls.rdPerTurnAround::stdev    325.692940                       # Reads before turning the bus around for writes
system.mem_ctrls.rdPerTurnAround::0-2047        31195    100.00%    100.00% # Reads before turning the bus around for writes
system.mem_ctrls.rdPerTurnAround::57344-59391            1      0.00%    100.00% # Reads before turning the bus around for writes
system.mem_ctrls.rdPerTurnAround::total         31196                       # Reads before turning the bus around for writes
system.mem_ctrls.wrPerTurnAround::samples        31196                       # Writes before turning the bus around for reads
system.mem_ctrls.wrPerTurnAround::mean      16.507950                       # Writes before turning the bus around for reads
system.mem_ctrls.wrPerTurnAround::gmean     16.405862                       # Writes before turning the bus around for reads
system.mem_ctrls.wrPerTurnAround::stdev      2.210243                       # Writes before turning the bus around for reads
system.mem_ctrls.wrPerTurnAround::16            28944     92.78%     92.78% # Writes before turning the bus around for reads
system.mem_ctrls.wrPerTurnAround::17               18      0.06%     92.84% # Writes before turning the bus around for reads
system.mem_ctrls.wrPerTurnAround::18              491      1.57%     94.41% # Writes before turning the bus around for reads
system.mem_ctrls.wrPerTurnAround::19                9      0.03%     94.44% # Writes before turning the bus around for reads
system.mem_ctrls.wrPerTurnAround::20               24      0.08%     94.52% # Writes before turning the bus around for reads
system.mem_ctrls.wrPerTurnAround::21              436      1.40%     95.92% # Writes before turning the bus around for reads
system.mem_ctrls.wrPerTurnAround::22              127      0.41%     96.32% # Writes before turning the bus around for reads
system.mem_ctrls.wrPerTurnAround::23               57      0.18%     96.51% # Writes before turning the bus around for reads
system.mem_ctrls.wrPerTurnAround::24              575      1.84%     98.35% # Writes before turning the bus around for reads
system.mem_ctrls.wrPerTurnAround::25               98      0.31%     98.66% # Writes before turning the bus around for reads
system.mem_ctrls.wrPerTurnAround::26               10      0.03%     98.70% # Writes before turning the bus around for reads
system.mem_ctrls.wrPerTurnAround::27               24      0.08%     98.77% # Writes before turning the bus around for reads
system.mem_ctrls.wrPerTurnAround::28              296      0.95%     99.72% # Writes before turning the bus around for reads
system.mem_ctrls.wrPerTurnAround::29                1      0.00%     99.72% # Writes before turning the bus around for reads
system.mem_ctrls.wrPerTurnAround::30                5      0.02%     99.74% # Writes before turning the bus around for reads
system.mem_ctrls.wrPerTurnAround::31               12      0.04%     99.78% # Writes before turning the bus around for reads
system.mem_ctrls.wrPerTurnAround::32                1      0.00%     99.78% # Writes before turning the bus around for reads
system.mem_ctrls.wrPerTurnAround::33                3      0.01%     99.79% # Writes before turning the bus around for reads
system.mem_ctrls.wrPerTurnAround::34                2      0.01%     99.80% # Writes before turning the bus around for reads
system.mem_ctrls.wrPerTurnAround::35                6      0.02%     99.82% # Writes before turning the bus around for reads
system.mem_ctrls.wrPerTurnAround::36                2      0.01%     99.82% # Writes before turning the bus around for reads
system.mem_ctrls.wrPerTurnAround::37                2      0.01%     99.83% # Writes before turning the bus around for reads
system.mem_ctrls.wrPerTurnAround::38                7      0.02%     99.85% # Writes before turning the bus around for reads
system.mem_ctrls.wrPerTurnAround::39                8      0.03%     99.88% # Writes before turning the bus around for reads
system.mem_ctrls.wrPerTurnAround::40                5      0.02%     99.89% # Writes before turning the bus around for reads
system.mem_ctrls.wrPerTurnAround::41                3      0.01%     99.90% # Writes before turning the bus around for reads
system.mem_ctrls.wrPerTurnAround::42                6      0.02%     99.92% # Writes before turning the bus around for reads
system.mem_ctrls.wrPerTurnAround::43                3      0.01%     99.93% # Writes before turning the bus around for reads
system.mem_ctrls.wrPerTurnAround::44                5      0.02%     99.95% # Writes before turning the bus around for reads
system.mem_ctrls.wrPerTurnAround::45                3      0.01%     99.96% # Writes before turning the bus around for reads
system.mem_ctrls.wrPerTurnAround::46                1      0.00%     99.96% # Writes before turning the bus around for reads
system.mem_ctrls.wrPerTurnAround::47                3      0.01%     99.97% # Writes before turning the bus around for reads
system.mem_ctrls.wrPerTurnAround::48                4      0.01%     99.98% # Writes before turning the bus around for reads
system.mem_ctrls.wrPerTurnAround::50                1      0.00%     99.99% # Writes before turning the bus around for reads
system.mem_ctrls.wrPerTurnAround::51                4      0.01%    100.00% # Writes before turning the bus around for reads
system.mem_ctrls.wrPerTurnAround::total         31196                       # Writes before turning the bus around for reads
system.mem_ctrls.totQLat                   7557091751                       # Total ticks spent queuing
system.mem_ctrls.totMemAccLat             17976729251                       # Total ticks spent from burst creation until serviced by the DRAM
system.mem_ctrls.totBusLat                 2778570000                       # Total ticks spent in databus transfers
system.mem_ctrls.avgQLat                     13598.89                       # Average queueing delay per DRAM burst
system.mem_ctrls.avgBusLat                    5000.00                       # Average bus latency per DRAM burst
system.mem_ctrls.avgMemAccLat                32348.89                       # Average memory access latency per DRAM burst
system.mem_ctrls.avgRdBW                         6.67                       # Average DRAM read bandwidth in MiByte/s
system.mem_ctrls.avgWrBW                         6.18                       # Average achieved write bandwidth in MiByte/s
system.mem_ctrls.avgRdBWSys                      6.67                       # Average system read bandwidth in MiByte/s
system.mem_ctrls.avgWrBWSys                      6.18                       # Average system write bandwidth in MiByte/s
system.mem_ctrls.peakBW                      12800.00                       # Theoretical peak bandwidth in MiByte/s
system.mem_ctrls.busUtil                         0.10                       # Data bus utilization in percentage
system.mem_ctrls.busUtilRead                     0.05                       # Data bus utilization in percentage for reads
system.mem_ctrls.busUtilWrite                    0.05                       # Data bus utilization in percentage for writes
system.mem_ctrls.avgRdQLen                       1.00                       # Average read queue length when enqueuing
system.mem_ctrls.avgWrQLen                      25.41                       # Average write queue length when enqueuing
system.mem_ctrls.readRowHits                   484765                       # Number of row buffer hits during reads
system.mem_ctrls.writeRowHits                  433509                       # Number of row buffer hits during writes
system.mem_ctrls.readRowHitRate                 87.23                       # Row buffer hit rate for reads
system.mem_ctrls.writeRowHitRate                84.18                       # Row buffer hit rate for writes
system.mem_ctrls.avgGap                    4982754.98                       # Average gap between requests
system.mem_ctrls.pageHitRate                    85.76                       # Row buffer hit rate, read and write combined
system.mem_ctrls_0.actEnergy                582150240                       # Energy for activate commands per rank (pJ)
system.mem_ctrls_0.preEnergy                317641500                       # Energy for precharge commands per rank (pJ)
system.mem_ctrls_0.readEnergy              2155038600                       # Energy for read commands per rank (pJ)
system.mem_ctrls_0.writeEnergy             1670258880                       # Energy for write commands per rank (pJ)
system.mem_ctrls_0.refreshEnergy         348482094480                       # Energy for refresh commands per rank (pJ)
system.mem_ctrls_0.actBackEnergy         163801816560                       # Energy for active background per rank (pJ)
system.mem_ctrls_0.preBackEnergy         3057551611500                       # Energy for precharge background per rank (pJ)
system.mem_ctrls_0.totalEnergy           3574560611760                       # Total energy per rank (pJ)
system.mem_ctrls_0.averagePower            669.971042                       # Core power per rank (mW)
system.mem_ctrls_0.memoryStateTime::IDLE 5085996550750                       # Time in different power states
system.mem_ctrls_0.memoryStateTime::REF  178160580000                       # Time in different power states
system.mem_ctrls_0.memoryStateTime::PRE_PDN            0                       # Time in different power states
system.mem_ctrls_0.memoryStateTime::ACT   71241931750                       # Time in different power states
system.mem_ctrls_0.memoryStateTime::ACT_PDN            0                       # Time in different power states
system.mem_ctrls_1.actEnergy                570144960                       # Energy for activate commands per rank (pJ)
system.mem_ctrls_1.preEnergy                311091000                       # Energy for precharge commands per rank (pJ)
system.mem_ctrls_1.readEnergy              2179491600                       # Energy for read commands per rank (pJ)
system.mem_ctrls_1.writeEnergy             1666824480                       # Energy for write commands per rank (pJ)
system.mem_ctrls_1.refreshEnergy         348482094480                       # Energy for refresh commands per rank (pJ)
system.mem_ctrls_1.actBackEnergy         163768113315                       # Energy for active background per rank (pJ)
system.mem_ctrls_1.preBackEnergy         3057581175750                       # Energy for precharge background per rank (pJ)
system.mem_ctrls_1.totalEnergy           3574558935585                       # Total energy per rank (pJ)
system.mem_ctrls_1.averagePower            669.970728                       # Core power per rank (mW)
system.mem_ctrls_1.memoryStateTime::IDLE 5086050985501                       # Time in different power states
system.mem_ctrls_1.memoryStateTime::REF  178160580000                       # Time in different power states
system.mem_ctrls_1.memoryStateTime::PRE_PDN            0                       # Time in different power states
system.mem_ctrls_1.memoryStateTime::ACT   71187744499                       # Time in different power states
system.mem_ctrls_1.memoryStateTime::ACT_PDN            0                       # Time in different power states
system.cpu_voltage_domain.voltage                   1                       # Voltage in Volts
system.cpu_clk_domain.clock                       500                       # Clock period in ticks
system.cpu.apic_clk_domain.clock                 8000                       # Clock period in ticks
system.cpu.numCycles                      10670799297                       # number of cpu cycles simulated
system.cpu.numWorkItemsStarted                      0                       # number of work items this cpu started
system.cpu.numWorkItemsCompleted                    0                       # number of work items this cpu completed
system.cpu.committedInsts                    94392062                       # Number of instructions committed
system.cpu.committedOps                     184565924                       # Number of ops (including micro ops) committed
system.cpu.num_int_alu_accesses             175643878                       # Number of integer alu accesses
system.cpu.num_fp_alu_accesses                  41144                       # Number of float alu accesses
system.cpu.num_func_calls                     2321732                       # number of times a function call or return occured
system.cpu.num_conditional_control_insts     16773701                       # number of instructions that are conditional controls
system.cpu.num_int_insts                    175643878                       # number of integer instructions
system.cpu.num_fp_insts                         41144                       # number of float instructions
system.cpu.num_int_register_reads           332748098                       # number of times the integer registers were read
system.cpu.num_int_register_writes          146156309                       # number of times the integer registers were written
system.cpu.num_fp_register_reads                67816                       # number of times the floating registers were read
system.cpu.num_fp_register_writes               32733                       # number of times the floating registers were written
system.cpu.num_cc_register_reads             96883037                       # number of times the CC registers were read
system.cpu.num_cc_register_writes            67238830                       # number of times the CC registers were written
system.cpu.num_mem_refs                      25575294                       # number of memory refs
system.cpu.num_load_insts                    15157549                       # Number of load instructions
system.cpu.num_store_insts                   10417745                       # Number of store instructions
system.cpu.num_idle_cycles               9811229318.598162                       # Number of idle cycles
system.cpu.num_busy_cycles               859569978.401839                       # Number of busy cycles
system.cpu.not_idle_fraction                 0.080553                       # Percentage of non-idle cycles
system.cpu.idle_fraction                     0.919447                       # Percentage of idle cycles
system.cpu.Branches                          20012779                       # Number of branches fetched
system.cpu.op_class::No_OpClass               1142214      0.62%      0.62% # Class of executed instruction
system.cpu.op_class::IntAlu                 157593023     85.38%     86.00% # Class of executed instruction
system.cpu.op_class::IntMult                   123968      0.07%     86.07% # Class of executed instruction
system.cpu.op_class::IntDiv                    109161      0.06%     86.13% # Class of executed instruction
system.cpu.op_class::FloatAdd                   29248      0.02%     86.15% # Class of executed instruction
system.cpu.op_class::FloatCmp                       0      0.00%     86.15% # Class of executed instruction
system.cpu.op_class::FloatCvt                      16      0.00%     86.15% # Class of executed instruction
system.cpu.op_class::FloatMult                      0      0.00%     86.15% # Class of executed instruction
system.cpu.op_class::FloatDiv                       0      0.00%     86.15% # Class of executed instruction
system.cpu.op_class::FloatSqrt                      0      0.00%     86.15% # Class of executed instruction
system.cpu.op_class::SimdAdd                        0      0.00%     86.15% # Class of executed instruction
system.cpu.op_class::SimdAddAcc                     0      0.00%     86.15% # Class of executed instruction
system.cpu.op_class::SimdAlu                        0      0.00%     86.15% # Class of executed instruction
system.cpu.op_class::SimdCmp                        0      0.00%     86.15% # Class of executed instruction
system.cpu.op_class::SimdCvt                        0      0.00%     86.15% # Class of executed instruction
system.cpu.op_class::SimdMisc                       0      0.00%     86.15% # Class of executed instruction
system.cpu.op_class::SimdMult                       0      0.00%     86.15% # Class of executed instruction
system.cpu.op_class::SimdMultAcc                    0      0.00%     86.15% # Class of executed instruction
system.cpu.op_class::SimdShift                      0      0.00%     86.15% # Class of executed instruction
system.cpu.op_class::SimdShiftAcc                   0      0.00%     86.15% # Class of executed instruction
system.cpu.op_class::SimdSqrt                       0      0.00%     86.15% # Class of executed instruction
system.cpu.op_class::SimdFloatAdd                   0      0.00%     86.15% # Class of executed instruction
system.cpu.op_class::SimdFloatAlu                   0      0.00%     86.15% # Class of executed instruction
system.cpu.op_class::SimdFloatCmp                   0      0.00%     86.15% # Class of executed instruction
system.cpu.op_class::SimdFloatCvt                   0      0.00%     86.15% # Class of executed instruction
system.cpu.op_class::SimdFloatDiv                   0      0.00%     86.15% # Class of executed instruction
system.cpu.op_class::SimdFloatMisc                  0      0.00%     86.15% # Class of executed instruction
system.cpu.op_class::SimdFloatMult                  0      0.00%     86.15% # Class of executed instruction
system.cpu.op_class::SimdFloatMultAcc               0      0.00%     86.15% # Class of executed instruction
system.cpu.op_class::SimdFloatSqrt                  0      0.00%     86.15% # Class of executed instruction
system.cpu.op_class::MemRead                 15152576      8.21%     94.36% # Class of executed instruction
system.cpu.op_class::MemWrite                10417745      5.64%    100.00% # Class of executed instruction
system.cpu.op_class::IprAccess                      0      0.00%    100.00% # Class of executed instruction
system.cpu.op_class::InstPrefetch                   0      0.00%    100.00% # Class of executed instruction
system.cpu.op_class::total                  184567951                       # Class of executed instruction
system.cpu.kern.inst.arm                            0                       # number of arm instructions executed
system.cpu.kern.inst.quiesce                        0                       # number of quiesce instructions executed
system.iobus.trans_dist::ReadReq               842193                       # Transaction distribution
system.iobus.trans_dist::ReadResp              842193                       # Transaction distribution
system.iobus.trans_dist::WriteReq               12549                       # Transaction distribution
system.iobus.trans_dist::WriteResp              12549                       # Transaction distribution
system.iobus.trans_dist::MessageReq              1615                       # Transaction distribution
system.iobus.trans_dist::MessageResp             1615                       # Transaction distribution
system.iobus.pkt_count_system.pc.south_bridge.io_apic.int_master::system.ruby.l1_cntrl0.sequencer.pio-slave-port         3230                       # Packet count per connected master and slave (bytes)
system.iobus.pkt_count_system.pc.south_bridge.io_apic.int_master::total         3230                       # Packet count per connected master and slave (bytes)
system.iobus.pkt_count_system.ruby.l1_cntrl0.sequencer.mem-master-port::system.pc.south_bridge.cmos.pio           48                       # Packet count per connected master and slave (bytes)
system.iobus.pkt_count_system.ruby.l1_cntrl0.sequencer.mem-master-port::system.pc.south_bridge.dma1.pio            6                       # Packet count per connected master and slave (bytes)
system.iobus.pkt_count_system.ruby.l1_cntrl0.sequencer.mem-master-port::system.pc.south_bridge.ide.pio         6764                       # Packet count per connected master and slave (bytes)
system.iobus.pkt_count_system.ruby.l1_cntrl0.sequencer.mem-master-port::system.pc.south_bridge.ide-pciconf          180                       # Packet count per connected master and slave (bytes)
system.iobus.pkt_count_system.ruby.l1_cntrl0.sequencer.mem-master-port::system.pc.south_bridge.keyboard.pio         1364                       # Packet count per connected master and slave (bytes)
system.iobus.pkt_count_system.ruby.l1_cntrl0.sequencer.mem-master-port::system.pc.south_bridge.pic1.pio          130                       # Packet count per connected master and slave (bytes)
system.iobus.pkt_count_system.ruby.l1_cntrl0.sequencer.mem-master-port::system.pc.south_bridge.pic2.pio           54                       # Packet count per connected master and slave (bytes)
system.iobus.pkt_count_system.ruby.l1_cntrl0.sequencer.mem-master-port::system.pc.south_bridge.pit.pio           30                       # Packet count per connected master and slave (bytes)
system.iobus.pkt_count_system.ruby.l1_cntrl0.sequencer.mem-master-port::system.pc.south_bridge.speaker.pio       934582                       # Packet count per connected master and slave (bytes)
system.iobus.pkt_count_system.ruby.l1_cntrl0.sequencer.mem-master-port::system.pc.south_bridge.io_apic.pio         1554                       # Packet count per connected master and slave (bytes)
system.iobus.pkt_count_system.ruby.l1_cntrl0.sequencer.mem-master-port::system.pc.i_dont_exist1.pio          174                       # Packet count per connected master and slave (bytes)
system.iobus.pkt_count_system.ruby.l1_cntrl0.sequencer.mem-master-port::system.pc.behind_pci.pio            2                       # Packet count per connected master and slave (bytes)
system.iobus.pkt_count_system.ruby.l1_cntrl0.sequencer.mem-master-port::system.pc.com_1.pio        29328                       # Packet count per connected master and slave (bytes)
system.iobus.pkt_count_system.ruby.l1_cntrl0.sequencer.mem-master-port::system.pc.fake_com_2.pio           12                       # Packet count per connected master and slave (bytes)
system.iobus.pkt_count_system.ruby.l1_cntrl0.sequencer.mem-master-port::system.pc.fake_com_3.pio           12                       # Packet count per connected master and slave (bytes)
system.iobus.pkt_count_system.ruby.l1_cntrl0.sequencer.mem-master-port::system.pc.fake_com_4.pio           12                       # Packet count per connected master and slave (bytes)
system.iobus.pkt_count_system.ruby.l1_cntrl0.sequencer.mem-master-port::system.pc.fake_floppy.pio           10                       # Packet count per connected master and slave (bytes)
system.iobus.pkt_count_system.ruby.l1_cntrl0.sequencer.mem-master-port::system.ruby.l1_cntrl0.sequencer.pio-slave-port       733096                       # Packet count per connected master and slave (bytes)
system.iobus.pkt_count_system.ruby.l1_cntrl0.sequencer.mem-master-port::system.pc.pciconfig.pio         2126                       # Packet count per connected master and slave (bytes)
system.iobus.pkt_count_system.ruby.l1_cntrl0.sequencer.mem-master-port::total      1709484                       # Packet count per connected master and slave (bytes)
system.iobus.pkt_count::total                 1712714                       # Packet count per connected master and slave (bytes)
system.iobus.pkt_size_system.pc.south_bridge.io_apic.int_master::system.ruby.l1_cntrl0.sequencer.pio-slave-port         6460                       # Cumulative packet size per connected master and slave (bytes)
system.iobus.pkt_size_system.pc.south_bridge.io_apic.int_master::total         6460                       # Cumulative packet size per connected master and slave (bytes)
system.iobus.pkt_size_system.ruby.l1_cntrl0.sequencer.mem-master-port::system.pc.south_bridge.cmos.pio           24                       # Cumulative packet size per connected master and slave (bytes)
system.iobus.pkt_size_system.ruby.l1_cntrl0.sequencer.mem-master-port::system.pc.south_bridge.dma1.pio            3                       # Cumulative packet size per connected master and slave (bytes)
system.iobus.pkt_size_system.ruby.l1_cntrl0.sequencer.mem-master-port::system.pc.south_bridge.ide.pio         4242                       # Cumulative packet size per connected master and slave (bytes)
system.iobus.pkt_size_system.ruby.l1_cntrl0.sequencer.mem-master-port::system.pc.south_bridge.ide-pciconf          221                       # Cumulative packet size per connected master and slave (bytes)
system.iobus.pkt_size_system.ruby.l1_cntrl0.sequencer.mem-master-port::system.pc.south_bridge.keyboard.pio          682                       # Cumulative packet size per connected master and slave (bytes)
system.iobus.pkt_size_system.ruby.l1_cntrl0.sequencer.mem-master-port::system.pc.south_bridge.pic1.pio           65                       # Cumulative packet size per connected master and slave (bytes)
system.iobus.pkt_size_system.ruby.l1_cntrl0.sequencer.mem-master-port::system.pc.south_bridge.pic2.pio           27                       # Cumulative packet size per connected master and slave (bytes)
system.iobus.pkt_size_system.ruby.l1_cntrl0.sequencer.mem-master-port::system.pc.south_bridge.pit.pio           15                       # Cumulative packet size per connected master and slave (bytes)
system.iobus.pkt_size_system.ruby.l1_cntrl0.sequencer.mem-master-port::system.pc.south_bridge.speaker.pio       467291                       # Cumulative packet size per connected master and slave (bytes)
system.iobus.pkt_size_system.ruby.l1_cntrl0.sequencer.mem-master-port::system.pc.south_bridge.io_apic.pio         3108                       # Cumulative packet size per connected master and slave (bytes)
system.iobus.pkt_size_system.ruby.l1_cntrl0.sequencer.mem-master-port::system.pc.i_dont_exist1.pio           87                       # Cumulative packet size per connected master and slave (bytes)
system.iobus.pkt_size_system.ruby.l1_cntrl0.sequencer.mem-master-port::system.pc.behind_pci.pio            1                       # Cumulative packet size per connected master and slave (bytes)
system.iobus.pkt_size_system.ruby.l1_cntrl0.sequencer.mem-master-port::system.pc.com_1.pio        14664                       # Cumulative packet size per connected master and slave (bytes)
system.iobus.pkt_size_system.ruby.l1_cntrl0.sequencer.mem-master-port::system.pc.fake_com_2.pio            6                       # Cumulative packet size per connected master and slave (bytes)
system.iobus.pkt_size_system.ruby.l1_cntrl0.sequencer.mem-master-port::system.pc.fake_com_3.pio            6                       # Cumulative packet size per connected master and slave (bytes)
system.iobus.pkt_size_system.ruby.l1_cntrl0.sequencer.mem-master-port::system.pc.fake_com_4.pio            6                       # Cumulative packet size per connected master and slave (bytes)
system.iobus.pkt_size_system.ruby.l1_cntrl0.sequencer.mem-master-port::system.pc.fake_floppy.pio            5                       # Cumulative packet size per connected master and slave (bytes)
system.iobus.pkt_size_system.ruby.l1_cntrl0.sequencer.mem-master-port::system.ruby.l1_cntrl0.sequencer.pio-slave-port      1466186                       # Cumulative packet size per connected master and slave (bytes)
system.iobus.pkt_size_system.ruby.l1_cntrl0.sequencer.mem-master-port::system.pc.pciconfig.pio         4252                       # Cumulative packet size per connected master and slave (bytes)
system.iobus.pkt_size_system.ruby.l1_cntrl0.sequencer.mem-master-port::total      1960891                       # Cumulative packet size per connected master and slave (bytes)
system.iobus.pkt_size::total                  1967351                       # Cumulative packet size per connected master and slave (bytes)
system.iobus.reqLayer0.occupancy                48000                       # Layer occupancy (ticks)
system.iobus.reqLayer0.utilization                0.0                       # Layer utilization (%)
system.iobus.reqLayer1.occupancy                 7000                       # Layer occupancy (ticks)
system.iobus.reqLayer1.utilization                0.0                       # Layer utilization (%)
system.iobus.reqLayer2.occupancy              5945000                       # Layer occupancy (ticks)
system.iobus.reqLayer2.utilization                0.0                       # Layer utilization (%)
system.iobus.reqLayer3.occupancy               144000                       # Layer occupancy (ticks)
system.iobus.reqLayer3.utilization                0.0                       # Layer utilization (%)
system.iobus.reqLayer4.occupancy              1060500                       # Layer occupancy (ticks)
system.iobus.reqLayer4.utilization                0.0                       # Layer utilization (%)
system.iobus.reqLayer5.occupancy               135500                       # Layer occupancy (ticks)
system.iobus.reqLayer5.utilization                0.0                       # Layer utilization (%)
system.iobus.reqLayer6.occupancy                58500                       # Layer occupancy (ticks)
system.iobus.reqLayer6.utilization                0.0                       # Layer utilization (%)
system.iobus.reqLayer7.occupancy                32500                       # Layer occupancy (ticks)
system.iobus.reqLayer7.utilization                0.0                       # Layer utilization (%)
system.iobus.reqLayer8.occupancy            467293000                       # Layer occupancy (ticks)
system.iobus.reqLayer8.utilization                0.0                       # Layer utilization (%)
system.iobus.reqLayer9.occupancy              1473500                       # Layer occupancy (ticks)
system.iobus.reqLayer9.utilization                0.0                       # Layer utilization (%)
system.iobus.reqLayer10.occupancy              203000                       # Layer occupancy (ticks)
system.iobus.reqLayer10.utilization               0.0                       # Layer utilization (%)
system.iobus.reqLayer12.occupancy                2500                       # Layer occupancy (ticks)
system.iobus.reqLayer12.utilization               0.0                       # Layer utilization (%)
system.iobus.reqLayer13.occupancy            25721500                       # Layer occupancy (ticks)
system.iobus.reqLayer13.utilization               0.0                       # Layer utilization (%)
system.iobus.reqLayer14.occupancy                9000                       # Layer occupancy (ticks)
system.iobus.reqLayer14.utilization               0.0                       # Layer utilization (%)
system.iobus.reqLayer15.occupancy                9000                       # Layer occupancy (ticks)
system.iobus.reqLayer15.utilization               0.0                       # Layer utilization (%)
system.iobus.reqLayer16.occupancy               12000                       # Layer occupancy (ticks)
system.iobus.reqLayer16.utilization               0.0                       # Layer utilization (%)
system.iobus.reqLayer17.occupancy               11000                       # Layer occupancy (ticks)
system.iobus.reqLayer17.utilization               0.0                       # Layer utilization (%)
system.iobus.reqLayer18.occupancy           465340224                       # Layer occupancy (ticks)
system.iobus.reqLayer18.utilization               0.0                       # Layer utilization (%)
system.iobus.reqLayer20.occupancy             1328000                       # Layer occupancy (ticks)
system.iobus.reqLayer20.utilization               0.0                       # Layer utilization (%)
system.iobus.respLayer0.occupancy             2339724                       # Layer occupancy (ticks)
system.iobus.respLayer0.utilization               0.0                       # Layer utilization (%)
system.iobus.respLayer2.occupancy          1793906500                       # Layer occupancy (ticks)
system.iobus.respLayer2.utilization               0.0                       # Layer utilization (%)
system.pc.south_bridge.ide.disks0.dma_read_full_pages            9                       # Number of full page size DMA reads (not PRD).
system.pc.south_bridge.ide.disks0.dma_read_bytes        36864                       # Number of bytes transfered via DMA reads (not PRD).
system.pc.south_bridge.ide.disks0.dma_read_txs            9                       # Number of DMA read transactions (not PRD).
system.pc.south_bridge.ide.disks0.dma_write_full_pages          672                       # Number of full page size DMA writes.
system.pc.south_bridge.ide.disks0.dma_write_bytes      2755584                       # Number of bytes transfered via DMA writes.
system.pc.south_bridge.ide.disks0.dma_write_txs          676                       # Number of DMA write transactions.
system.pc.south_bridge.ide.disks1.dma_read_full_pages            0                       # Number of full page size DMA reads (not PRD).
system.pc.south_bridge.ide.disks1.dma_read_bytes            0                       # Number of bytes transfered via DMA reads (not PRD).
system.pc.south_bridge.ide.disks1.dma_read_txs            0                       # Number of DMA read transactions (not PRD).
system.pc.south_bridge.ide.disks1.dma_write_full_pages            1                       # Number of full page size DMA writes.
system.pc.south_bridge.ide.disks1.dma_write_bytes         4096                       # Number of bytes transfered via DMA writes.
system.pc.south_bridge.ide.disks1.dma_write_txs            1                       # Number of DMA write transactions.
system.ruby.clk_domain.clock                      500                       # Clock period in ticks
system.ruby.delayHist::bucket_size                  2                       # delay histogram for all message
system.ruby.delayHist::max_bucket                  19                       # delay histogram for all message
system.ruby.delayHist::samples               10927328                       # delay histogram for all message
system.ruby.delayHist::mean                  0.552177                       # delay histogram for all message
system.ruby.delayHist::stdev                 2.027949                       # delay histogram for all message
system.ruby.delayHist                    |    10173059     93.10%     93.10% |          56      0.00%     93.10% |          23      0.00%     93.10% |          25      0.00%     93.10% |      754115      6.90%    100.00% |          43      0.00%    100.00% |           0      0.00%    100.00% |           0      0.00%    100.00% |           3      0.00%    100.00% |           4      0.00%    100.00% # delay histogram for all message
system.ruby.delayHist::total                 10927328                       # delay histogram for all message
system.ruby.outstanding_req_hist::bucket_size            1                      
system.ruby.outstanding_req_hist::max_bucket            9                      
system.ruby.outstanding_req_hist::samples    144088992                      
system.ruby.outstanding_req_hist::mean       1.000109                      
system.ruby.outstanding_req_hist::gmean      1.000076                      
system.ruby.outstanding_req_hist::stdev      0.010458                      
system.ruby.outstanding_req_hist         |           0      0.00%      0.00% |   144073231     99.99%     99.99% |       15761      0.01%    100.00% |           0      0.00%    100.00% |           0      0.00%    100.00% |           0      0.00%    100.00% |           0      0.00%    100.00% |           0      0.00%    100.00% |           0      0.00%    100.00% |           0      0.00%    100.00%
system.ruby.outstanding_req_hist::total     144088992                      
system.ruby.latency_hist::bucket_size             256                      
system.ruby.latency_hist::max_bucket             2559                      
system.ruby.latency_hist::samples           144088991                      
system.ruby.latency_hist::mean               3.769470                      
system.ruby.latency_hist::gmean              3.118852                      
system.ruby.latency_hist::stdev             10.963554                      
system.ruby.latency_hist                 |   144050766     99.97%     99.97% |       25495      0.02%     99.99% |       11644      0.01%    100.00% |         702      0.00%    100.00% |         340      0.00%    100.00% |          42      0.00%    100.00% |           2      0.00%    100.00% |           0      0.00%    100.00% |           0      0.00%    100.00% |           0      0.00%    100.00%
system.ruby.latency_hist::total             144088991                      
system.ruby.hit_latency_hist::bucket_size            1                      
system.ruby.hit_latency_hist::max_bucket            9                      
system.ruby.hit_latency_hist::samples       141669817                      
system.ruby.hit_latency_hist::mean                  3                      
system.ruby.hit_latency_hist::gmean          3.000000                      
system.ruby.hit_latency_hist             |           0      0.00%      0.00% |           0      0.00%      0.00% |           0      0.00%      0.00% |   141669817    100.00%    100.00% |           0      0.00%    100.00% |           0      0.00%    100.00% |           0      0.00%    100.00% |           0      0.00%    100.00% |           0      0.00%    100.00% |           0      0.00%    100.00%
system.ruby.hit_latency_hist::total         141669817                      
system.ruby.miss_latency_hist::bucket_size          256                      
system.ruby.miss_latency_hist::max_bucket         2559                      
system.ruby.miss_latency_hist::samples        2419174                      
system.ruby.miss_latency_hist::mean         48.830608                      
system.ruby.miss_latency_hist::gmean        30.347732                      
system.ruby.miss_latency_hist::stdev        71.372643                      
system.ruby.miss_latency_hist            |     2380949     98.42%     98.42% |       25495      1.05%     99.47% |       11644      0.48%     99.96% |         702      0.03%     99.98% |         340      0.01%    100.00% |          42      0.00%    100.00% |           2      0.00%    100.00% |           0      0.00%    100.00% |           0      0.00%    100.00% |           0      0.00%    100.00%
system.ruby.miss_latency_hist::total          2419174                      
system.ruby.l1_cntrl0.L1Dcache.demand_hits     23068620                       # Number of cache demand hits
system.ruby.l1_cntrl0.L1Dcache.demand_misses      1678811                       # Number of cache demand misses
system.ruby.l1_cntrl0.L1Dcache.demand_accesses     24747431                       # Number of cache demand accesses
system.ruby.l1_cntrl0.L1Icache.demand_hits    118601197                       # Number of cache demand hits
system.ruby.l1_cntrl0.L1Icache.demand_misses       740363                       # Number of cache demand misses
system.ruby.l1_cntrl0.L1Icache.demand_accesses    119341560                       # Number of cache demand accesses
system.ruby.l1_cntrl0.prefetcher.miss_observed            0                       # number of misses observed
system.ruby.l1_cntrl0.prefetcher.allocated_streams            0                       # number of streams allocated for prefetching
system.ruby.l1_cntrl0.prefetcher.prefetches_requested            0                       # number of prefetch requests made
system.ruby.l1_cntrl0.prefetcher.prefetches_accepted            0                       # number of prefetch requests accepted
system.ruby.l1_cntrl0.prefetcher.dropped_prefetches            0                       # number of prefetch requests dropped
system.ruby.l1_cntrl0.prefetcher.hits               0                       # number of prefetched blocks accessed
system.ruby.l1_cntrl0.prefetcher.partial_hits            0                       # number of misses observed for a block being prefetched
system.ruby.l1_cntrl0.prefetcher.pages_crossed            0                       # number of prefetches across pages
system.ruby.l1_cntrl0.prefetcher.misses_on_prefetched_blocks            0                       # number of misses for blocks that were prefetched, yet missed
system.ruby.l1_cntrl0.fully_busy_cycles            10                       # cycles for which number of transistions == max transitions
system.ruby.l2_cntrl0.L2cache.demand_hits      1864022                       # Number of cache demand hits
system.ruby.l2_cntrl0.L2cache.demand_misses       555152                       # Number of cache demand misses
system.ruby.l2_cntrl0.L2cache.demand_accesses      2419174                       # Number of cache demand accesses
system.ruby.memctrl_clk_domain.clock             1500                       # Clock period in ticks
system.ruby.network.routers0.percent_links_utilized     0.082628                      
system.ruby.network.routers0.msg_count.Control::0      2419174                      
system.ruby.network.routers0.msg_count.Request_Control::2         3709                      
system.ruby.network.routers0.msg_count.Response_Data::1      2419174                      
system.ruby.network.routers0.msg_count.Response_Control::1      1680851                      
system.ruby.network.routers0.msg_count.Response_Control::2      1678806                      
system.ruby.network.routers0.msg_count.Writeback_Data::0       754116                      
system.ruby.network.routers0.msg_count.Writeback_Data::1          313                      
system.ruby.network.routers0.msg_count.Writeback_Control::0       923339                      
system.ruby.network.routers0.msg_bytes.Control::0     19353392                      
system.ruby.network.routers0.msg_bytes.Request_Control::2        29672                      
system.ruby.network.routers0.msg_bytes.Response_Data::1    174180528                      
system.ruby.network.routers0.msg_bytes.Response_Control::1     13446808                      
system.ruby.network.routers0.msg_bytes.Response_Control::2     13430448                      
system.ruby.network.routers0.msg_bytes.Writeback_Data::0     54296352                      
system.ruby.network.routers0.msg_bytes.Writeback_Data::1        22536                      
system.ruby.network.routers0.msg_bytes.Writeback_Control::0      7386712                      
system.ruby.network.routers1.percent_links_utilized     0.106821                      
system.ruby.network.routers1.msg_count.Control::0      2974326                      
system.ruby.network.routers1.msg_count.Request_Control::2         3709                      
system.ruby.network.routers1.msg_count.Response_Data::1      3448290                      
system.ruby.network.routers1.msg_count.Response_Control::1      2190059                      
system.ruby.network.routers1.msg_count.Response_Control::2      1678806                      
system.ruby.network.routers1.msg_count.Writeback_Data::0       754116                      
system.ruby.network.routers1.msg_count.Writeback_Data::1          313                      
system.ruby.network.routers1.msg_count.Writeback_Control::0       923339                      
system.ruby.network.routers1.msg_bytes.Control::0     23794608                      
system.ruby.network.routers1.msg_bytes.Request_Control::2        29672                      
system.ruby.network.routers1.msg_bytes.Response_Data::1    248276880                      
system.ruby.network.routers1.msg_bytes.Response_Control::1     17520472                      
system.ruby.network.routers1.msg_bytes.Response_Control::2     13430448                      
system.ruby.network.routers1.msg_bytes.Writeback_Data::0     54296352                      
system.ruby.network.routers1.msg_bytes.Writeback_Data::1        22536                      
system.ruby.network.routers1.msg_bytes.Writeback_Control::0      7386712                      
system.ruby.network.routers2.percent_links_utilized     0.024413                      
system.ruby.network.routers2.msg_count.Control::0       555152                      
system.ruby.network.routers2.msg_count.Response_Data::1      1029869                      
system.ruby.network.routers2.msg_count.Response_Control::1       509208                      
system.ruby.network.routers2.msg_count.Writeback_Control::0        43873                      
system.ruby.network.routers2.msg_count.Writeback_Control::1        43120                      
system.ruby.network.routers2.msg_bytes.Control::0      4441216                      
system.ruby.network.routers2.msg_bytes.Response_Data::1     74150568                      
system.ruby.network.routers2.msg_bytes.Response_Control::1      4073664                      
system.ruby.network.routers2.msg_bytes.Writeback_Control::0       350984                      
system.ruby.network.routers2.msg_bytes.Writeback_Control::1       344960                      
system.ruby.network.routers3.percent_links_utilized     0.000220                      
system.ruby.network.routers3.msg_count.Response_Data::1          753                      
system.ruby.network.routers3.msg_count.Writeback_Control::0        43873                      
system.ruby.network.routers3.msg_count.Writeback_Control::1        43120                      
system.ruby.network.routers3.msg_bytes.Response_Data::1        54216                      
system.ruby.network.routers3.msg_bytes.Writeback_Control::0       350984                      
system.ruby.network.routers3.msg_bytes.Writeback_Control::1       344960                      
system.ruby.network.routers4.percent_links_utilized            0                      
system.ruby.network.routers5.percent_links_utilized     0.042816                      
system.ruby.network.routers5.msg_count.Control::0      2974326                      
system.ruby.network.routers5.msg_count.Request_Control::2         3709                      
system.ruby.network.routers5.msg_count.Response_Data::1      3449043                      
system.ruby.network.routers5.msg_count.Response_Control::1      2190059                      
system.ruby.network.routers5.msg_count.Response_Control::2      1678806                      
system.ruby.network.routers5.msg_count.Writeback_Data::0       754116                      
system.ruby.network.routers5.msg_count.Writeback_Data::1          313                      
system.ruby.network.routers5.msg_count.Writeback_Control::0       967212                      
system.ruby.network.routers5.msg_count.Writeback_Control::1        43120                      
system.ruby.network.routers5.msg_bytes.Control::0     23794608                      
system.ruby.network.routers5.msg_bytes.Request_Control::2        29672                      
system.ruby.network.routers5.msg_bytes.Response_Data::1    248331096                      
system.ruby.network.routers5.msg_bytes.Response_Control::1     17520472                      
system.ruby.network.routers5.msg_bytes.Response_Control::2     13430448                      
system.ruby.network.routers5.msg_bytes.Writeback_Data::0     54296352                      
system.ruby.network.routers5.msg_bytes.Writeback_Data::1        22536                      
system.ruby.network.routers5.msg_bytes.Writeback_Control::0      7737696                      
system.ruby.network.routers5.msg_bytes.Writeback_Control::1       344960                      
system.ruby.network.msg_count.Control         8922978                      
system.ruby.network.msg_count.Request_Control        11127                      
system.ruby.network.msg_count.Response_Data     10347129                      
system.ruby.network.msg_count.Response_Control     11606595                      
system.ruby.network.msg_count.Writeback_Data      2263287                      
system.ruby.network.msg_count.Writeback_Control      3030996                      
system.ruby.network.msg_byte.Control         71383824                      
system.ruby.network.msg_byte.Request_Control        89016                      
system.ruby.network.msg_byte.Response_Data    744993288                      
system.ruby.network.msg_byte.Response_Control     92852760                      
system.ruby.network.msg_byte.Writeback_Data    162956664                      
system.ruby.network.msg_byte.Writeback_Control     24247968                      
system.ruby.network.routers0.throttle0.link_utilization     0.109897                      
system.ruby.network.routers0.throttle0.msg_count.Request_Control::2         3709                      
system.ruby.network.routers0.throttle0.msg_count.Response_Data::1      2419174                      
system.ruby.network.routers0.throttle0.msg_count.Response_Control::1      1677455                      
system.ruby.network.routers0.throttle0.msg_bytes.Request_Control::2        29672                      
system.ruby.network.routers0.throttle0.msg_bytes.Response_Data::1    174180528                      
system.ruby.network.routers0.throttle0.msg_bytes.Response_Control::1     13419640                      
system.ruby.network.routers0.throttle1.link_utilization     0.055359                      
system.ruby.network.routers0.throttle1.msg_count.Control::0      2419174                      
system.ruby.network.routers0.throttle1.msg_count.Response_Control::1         3396                      
system.ruby.network.routers0.throttle1.msg_count.Response_Control::2      1678806                      
system.ruby.network.routers0.throttle1.msg_count.Writeback_Data::0       754116                      
system.ruby.network.routers0.throttle1.msg_count.Writeback_Data::1          313                      
system.ruby.network.routers0.throttle1.msg_count.Writeback_Control::0       923339                      
system.ruby.network.routers0.throttle1.msg_bytes.Control::0     19353392                      
system.ruby.network.routers0.throttle1.msg_bytes.Response_Control::1        27168                      
system.ruby.network.routers0.throttle1.msg_bytes.Response_Control::2     13430448                      
system.ruby.network.routers0.throttle1.msg_bytes.Writeback_Data::0     54296352                      
system.ruby.network.routers0.throttle1.msg_bytes.Writeback_Data::1        22536                      
system.ruby.network.routers0.throttle1.msg_bytes.Writeback_Control::0      7386712                      
system.ruby.network.routers1.throttle0.link_utilization     0.081079                      
system.ruby.network.routers1.throttle0.msg_count.Control::0      2419174                      
system.ruby.network.routers1.throttle0.msg_count.Response_Data::1       555152                      
system.ruby.network.routers1.throttle0.msg_count.Response_Control::1       496090                      
system.ruby.network.routers1.throttle0.msg_count.Response_Control::2      1678806                      
system.ruby.network.routers1.throttle0.msg_count.Writeback_Data::0       754116                      
system.ruby.network.routers1.throttle0.msg_count.Writeback_Data::1          313                      
system.ruby.network.routers1.throttle0.msg_count.Writeback_Control::0       923339                      
system.ruby.network.routers1.throttle0.msg_bytes.Control::0     19353392                      
system.ruby.network.routers1.throttle0.msg_bytes.Response_Data::1     39970944                      
system.ruby.network.routers1.throttle0.msg_bytes.Response_Control::1      3968720                      
system.ruby.network.routers1.throttle0.msg_bytes.Response_Control::2     13430448                      
system.ruby.network.routers1.throttle0.msg_bytes.Writeback_Data::0     54296352                      
system.ruby.network.routers1.throttle0.msg_bytes.Writeback_Data::1        22536                      
system.ruby.network.routers1.throttle0.msg_bytes.Writeback_Control::0      7386712                      
system.ruby.network.routers1.throttle1.link_utilization     0.132563                      
system.ruby.network.routers1.throttle1.msg_count.Control::0       555152                      
system.ruby.network.routers1.throttle1.msg_count.Request_Control::2         3709                      
system.ruby.network.routers1.throttle1.msg_count.Response_Data::1      2893138                      
system.ruby.network.routers1.throttle1.msg_count.Response_Control::1      1693969                      
system.ruby.network.routers1.throttle1.msg_bytes.Control::0      4441216                      
system.ruby.network.routers1.throttle1.msg_bytes.Request_Control::2        29672                      
system.ruby.network.routers1.throttle1.msg_bytes.Response_Data::1    208305936                      
system.ruby.network.routers1.throttle1.msg_bytes.Response_Control::1     13551752                      
system.ruby.network.routers2.throttle0.link_utilization     0.022872                      
system.ruby.network.routers2.throttle0.msg_count.Control::0       555152                      
system.ruby.network.routers2.throttle0.msg_count.Response_Data::1       473964                      
system.ruby.network.routers2.throttle0.msg_count.Response_Control::1        16514                      
system.ruby.network.routers2.throttle0.msg_count.Writeback_Control::0        43873                      
system.ruby.network.routers2.throttle0.msg_bytes.Control::0      4441216                      
system.ruby.network.routers2.throttle0.msg_bytes.Response_Data::1     34125408                      
system.ruby.network.routers2.throttle0.msg_bytes.Response_Control::1       132112                      
system.ruby.network.routers2.throttle0.msg_bytes.Writeback_Control::0       350984                      
system.ruby.network.routers2.throttle1.link_utilization     0.025954                      
system.ruby.network.routers2.throttle1.msg_count.Response_Data::1       555905                      
system.ruby.network.routers2.throttle1.msg_count.Response_Control::1       492694                      
system.ruby.network.routers2.throttle1.msg_count.Writeback_Control::1        43120                      
system.ruby.network.routers2.throttle1.msg_bytes.Response_Data::1     40025160                      
system.ruby.network.routers2.throttle1.msg_bytes.Response_Control::1      3941552                      
system.ruby.network.routers2.throttle1.msg_bytes.Writeback_Control::1       344960                      
system.ruby.network.routers3.throttle0.link_utilization     0.000234                      
system.ruby.network.routers3.throttle0.msg_count.Response_Data::1          753                      
system.ruby.network.routers3.throttle0.msg_count.Writeback_Control::1        43120                      
system.ruby.network.routers3.throttle0.msg_bytes.Response_Data::1        54216                      
system.ruby.network.routers3.throttle0.msg_bytes.Writeback_Control::1       344960                      
system.ruby.network.routers3.throttle1.link_utilization     0.000206                      
system.ruby.network.routers3.throttle1.msg_count.Writeback_Control::0        43873                      
system.ruby.network.routers3.throttle1.msg_bytes.Writeback_Control::0       350984                      
system.ruby.network.routers4.throttle0.link_utilization            0                      
system.ruby.network.routers4.throttle1.link_utilization            0                      
system.ruby.network.routers5.throttle0.link_utilization     0.109897                      
system.ruby.network.routers5.throttle0.msg_count.Request_Control::2         3709                      
system.ruby.network.routers5.throttle0.msg_count.Response_Data::1      2419174                      
system.ruby.network.routers5.throttle0.msg_count.Response_Control::1      1677455                      
system.ruby.network.routers5.throttle0.msg_bytes.Request_Control::2        29672                      
[...]
system.ruby.LD.miss_latency_hist::mean      85.893093                      
system.ruby.LD.miss_latency_hist::gmean     51.728060                      
system.ruby.LD.miss_latency_hist::stdev     93.848234                      
system.ruby.LD.miss_latency_hist         |     4076321     97.26%     97.26% |       76733      1.83%     99.09% |       35033      0.84%     99.93% |        1492      0.04%     99.96% |        1089      0.03%     99.99% |         327      0.01%    100.00% |         130      0.00%    100.00% |          31      0.00%    100.00% |          11      0.00%    100.00% |           0      0.00%    100.00%
system.ruby.LD.miss_latency_hist::total       4191167                      
system.ruby.ST.latency_hist::bucket_size          256                      
system.ruby.ST.latency_hist::max_bucket          2559                      
system.ruby.ST.latency_hist::samples          8751736                      
system.ruby.ST.latency_hist::mean            3.748852                      
system.ruby.ST.latency_hist::gmean           3.065425                      
system.ruby.ST.latency_hist::stdev          12.197964                      
system.ruby.ST.latency_hist              |     8749463     99.97%     99.97% |        1172      0.01%     99.99% |        1003      0.01%    100.00% |          43      0.00%    100.00% |          39      0.00%    100.00% |          12      0.00%    100.00% |           3      0.00%    100.00% |           0      0.00%    100.00% |           1      0.00%    100.00% |           0      0.00%    100.00%
system.ruby.ST.latency_hist::total            8751736                      
system.ruby.ST.hit_latency_hist::bucket_size            1                      
system.ruby.ST.hit_latency_hist::max_bucket            9                      
system.ruby.ST.hit_latency_hist::samples      8698929                      
system.ruby.ST.hit_latency_hist::mean               3                      
system.ruby.ST.hit_latency_hist::gmean       3.000000                      
system.ruby.ST.hit_latency_hist          |           0      0.00%      0.00% |           0      0.00%      0.00% |           0      0.00%      0.00% |     8698929    100.00%    100.00% |           0      0.00%    100.00% |           0      0.00%    100.00% |           0      0.00%    100.00% |           0      0.00%    100.00% |           0      0.00%    100.00% |           0      0.00%    100.00%
system.ruby.ST.hit_latency_hist::total        8698929                      
system.ruby.ST.miss_latency_hist::bucket_size          256                      
system.ruby.ST.miss_latency_hist::max_bucket         2559                      
system.ruby.ST.miss_latency_hist::samples        52807                      
system.ruby.ST.miss_latency_hist::mean     127.107637                      
system.ruby.ST.miss_latency_hist::gmean    107.134419                      
system.ruby.ST.miss_latency_hist::stdev     96.692893                      
system.ruby.ST.miss_latency_hist         |       50534     95.70%     95.70% |        1172      2.22%     97.92% |        1003      1.90%     99.81% |          43      0.08%     99.90% |          39      0.07%     99.97% |          12      0.02%     99.99% |           3      0.01%    100.00% |           0      0.00%    100.00% |           1      0.00%    100.00% |           0      0.00%    100.00%
system.ruby.ST.miss_latency_hist::total         52807                      
system.ruby.IFETCH.latency_hist::bucket_size          128                      
system.ruby.IFETCH.latency_hist::max_bucket         1279                      
system.ruby.IFETCH.latency_hist::samples    116407369                      
system.ruby.IFETCH.latency_hist::mean        3.013348                      
system.ruby.IFETCH.latency_hist::gmean       3.001196                      
system.ruby.IFETCH.latency_hist::stdev       1.551210                      
system.ruby.IFETCH.latency_hist          |   116401892    100.00%    100.00% |        5045      0.00%    100.00% |          75      0.00%    100.00% |         222      0.00%    100.00% |         104      0.00%    100.00% |          26      0.00%    100.00% |           0      0.00%    100.00% |           3      0.00%    100.00% |           2      0.00%    100.00% |           0      0.00%    100.00%
system.ruby.IFETCH.latency_hist::total      116407369                      
system.ruby.IFETCH.hit_latency_hist::bucket_size            1                      
system.ruby.IFETCH.hit_latency_hist::max_bucket            9                      
system.ruby.IFETCH.hit_latency_hist::samples    116393160                      
system.ruby.IFETCH.hit_latency_hist::mean            3                      
system.ruby.IFETCH.hit_latency_hist::gmean     3.000000                      
system.ruby.IFETCH.hit_latency_hist      |           0      0.00%      0.00% |           0      0.00%      0.00% |           0      0.00%      0.00% |   116393160    100.00%    100.00% |           0      0.00%    100.00% |           0      0.00%    100.00% |           0      0.00%    100.00% |           0      0.00%    100.00% |           0      0.00%    100.00% |           0      0.00%    100.00%
system.ruby.IFETCH.hit_latency_hist::total    116393160                      
system.ruby.IFETCH.miss_latency_hist::bucket_size          128                      
system.ruby.IFETCH.miss_latency_hist::max_bucket         1279                      
system.ruby.IFETCH.miss_latency_hist::samples        14209                      
system.ruby.IFETCH.miss_latency_hist::mean   112.350271                      
system.ruby.IFETCH.miss_latency_hist::gmean    78.596887                      
system.ruby.IFETCH.miss_latency_hist::stdev    88.078215                      
system.ruby.IFETCH.miss_latency_hist     |        8732     61.45%     61.45% |        5045     35.51%     96.96% |          75      0.53%     97.49% |         222      1.56%     99.05% |         104      0.73%     99.78% |          26      0.18%     99.96% |           0      0.00%     99.96% |           3      0.02%     99.99% |           2      0.01%    100.00% |           0      0.00%    100.00%
system.ruby.IFETCH.miss_latency_hist::total        14209                      
system.ruby.RMW_Read.latency_hist::bucket_size          128                      
system.ruby.RMW_Read.latency_hist::max_bucket         1279                      
system.ruby.RMW_Read.latency_hist::samples       736578                      
system.ruby.RMW_Read.latency_hist::mean      3.102306                      
system.ruby.RMW_Read.latency_hist::gmean     3.022040                      
system.ruby.RMW_Read.latency_hist::stdev     3.092950                      
system.ruby.RMW_Read.latency_hist        |      736425     99.98%     99.98% |         145      0.02%    100.00% |           3      0.00%    100.00% |           2      0.00%    100.00% |           2      0.00%    100.00% |           1      0.00%    100.00% |           0      0.00%    100.00% |           0      0.00%    100.00% |           0      0.00%    100.00% |           0      0.00%    100.00%
system.ruby.RMW_Read.latency_hist::total       736578                      
system.ruby.RMW_Read.hit_latency_hist::bucket_size            1                      
system.ruby.RMW_Read.hit_latency_hist::max_bucket            9                      
system.ruby.RMW_Read.hit_latency_hist::samples       733998                      
system.ruby.RMW_Read.hit_latency_hist::mean            3                      
system.ruby.RMW_Read.hit_latency_hist::gmean     3.000000                      
system.ruby.RMW_Read.hit_latency_hist    |           0      0.00%      0.00% |           0      0.00%      0.00% |           0      0.00%      0.00% |      733998    100.00%    100.00% |           0      0.00%    100.00% |           0      0.00%    100.00% |           0      0.00%    100.00% |           0      0.00%    100.00% |           0      0.00%    100.00% |           0      0.00%    100.00%
system.ruby.RMW_Read.hit_latency_hist::total       733998                      
system.ruby.RMW_Read.miss_latency_hist::bucket_size          128                      
system.ruby.RMW_Read.miss_latency_hist::max_bucket         1279                      
system.ruby.RMW_Read.miss_latency_hist::samples         2580                      
system.ruby.RMW_Read.miss_latency_hist::mean    32.207752                      
system.ruby.RMW_Read.miss_latency_hist::gmean    24.249454                      
system.ruby.RMW_Read.miss_latency_hist::stdev    43.379336                      
system.ruby.RMW_Read.miss_latency_hist   |        2427     94.07%     94.07% |         145      5.62%     99.69% |           3      0.12%     99.81% |           2      0.08%     99.88% |           2      0.08%     99.96% |           1      0.04%    100.00% |           0      0.00%    100.00% |           0      0.00%    100.00% |           0      0.00%    100.00% |           0      0.00%    100.00%
system.ruby.RMW_Read.miss_latency_hist::total         2580                      
system.ruby.Locked_RMW_Read.latency_hist::bucket_size          256                      
system.ruby.Locked_RMW_Read.latency_hist::max_bucket         2559                      
system.ruby.Locked_RMW_Read.latency_hist::samples      2262374                      
system.ruby.Locked_RMW_Read.latency_hist::mean    71.174155                      
system.ruby.Locked_RMW_Read.latency_hist::gmean    19.658298                      
system.ruby.Locked_RMW_Read.latency_hist::stdev    93.569002                      
system.ruby.Locked_RMW_Read.latency_hist |     2214186     97.87%     97.87% |       34345      1.52%     99.39% |       13388      0.59%     99.98% |         245      0.01%     99.99% |         207      0.01%    100.00% |           3      0.00%    100.00% |           0      0.00%    100.00% |           0      0.00%    100.00% |           0      0.00%    100.00% |           0      0.00%    100.00%
system.ruby.Locked_RMW_Read.latency_hist::total      2262374                      
system.ruby.Locked_RMW_Read.hit_latency_hist::bucket_size            1                      
system.ruby.Locked_RMW_Read.hit_latency_hist::max_bucket            9                      
system.ruby.Locked_RMW_Read.hit_latency_hist::samples       994788                      
system.ruby.Locked_RMW_Read.hit_latency_hist::mean            3                      
system.ruby.Locked_RMW_Read.hit_latency_hist::gmean     3.000000                      
system.ruby.Locked_RMW_Read.hit_latency_hist |           0      0.00%      0.00% |           0      0.00%      0.00% |           0      0.00%      0.00% |      994788    100.00%    100.00% |           0      0.00%    100.00% |           0      0.00%    100.00% |           0      0.00%    100.00% |           0      0.00%    100.00% |           0      0.00%    100.00% |           0      0.00%    100.00%
system.ruby.Locked_RMW_Read.hit_latency_hist::total       994788                      
system.ruby.Locked_RMW_Read.miss_latency_hist::bucket_size          256                      
system.ruby.Locked_RMW_Read.miss_latency_hist::max_bucket         2559                      
system.ruby.Locked_RMW_Read.miss_latency_hist::samples      1267586                      
system.ruby.Locked_RMW_Read.miss_latency_hist::mean   124.676506                      
system.ruby.Locked_RMW_Read.miss_latency_hist::gmean    85.954238                      
system.ruby.Locked_RMW_Read.miss_latency_hist::stdev    95.478450                      
system.ruby.Locked_RMW_Read.miss_latency_hist |     1219398     96.20%     96.20% |       34345      2.71%     98.91% |       13388      1.06%     99.96% |         245      0.02%     99.98% |         207      0.02%    100.00% |           3      0.00%    100.00% |           0      0.00%    100.00% |           0      0.00%    100.00% |           0      0.00%    100.00% |           0      0.00%    100.00%
system.ruby.Locked_RMW_Read.miss_latency_hist::total      1267586                      
system.ruby.Locked_RMW_Write.latency_hist::bucket_size            1                      
system.ruby.Locked_RMW_Write.latency_hist::max_bucket            9                      
system.ruby.Locked_RMW_Write.latency_hist::samples      2262374                      
system.ruby.Locked_RMW_Write.latency_hist::mean            3                      
system.ruby.Locked_RMW_Write.latency_hist::gmean     3.000000                      
system.ruby.Locked_RMW_Write.latency_hist |           0      0.00%      0.00% |           0      0.00%      0.00% |           0      0.00%      0.00% |     2262374    100.00%    100.00% |           0      0.00%    100.00% |           0      0.00%    100.00% |           0      0.00%    100.00% |           0      0.00%    100.00% |           0      0.00%    100.00% |           0      0.00%    100.00%
system.ruby.Locked_RMW_Write.latency_hist::total      2262374                      
system.ruby.Locked_RMW_Write.hit_latency_hist::bucket_size            1                      
system.ruby.Locked_RMW_Write.hit_latency_hist::max_bucket            9                      
system.ruby.Locked_RMW_Write.hit_latency_hist::samples      2262374                      
system.ruby.Locked_RMW_Write.hit_latency_hist::mean            3                      
system.ruby.Locked_RMW_Write.hit_latency_hist::gmean     3.000000                      
system.ruby.Locked_RMW_Write.hit_latency_hist |           0      0.00%      0.00% |           0      0.00%      0.00% |           0      0.00%      0.00% |     2262374    100.00%    100.00% |           0      0.00%    100.00% |           0      0.00%    100.00% |           0      0.00%    100.00% |           0      0.00%    100.00% |           0      0.00%    100.00% |           0      0.00%    100.00%
system.ruby.Locked_RMW_Write.hit_latency_hist::total      2262374                      
system.ruby.Directory_Controller.Fetch        2902344      0.00%      0.00%
system.ruby.Directory_Controller.Data         1729401      0.00%      0.00%
system.ruby.Directory_Controller.Memory_Data      2902344      0.00%      0.00%
system.ruby.Directory_Controller.Memory_Ack      1729401      0.00%      0.00%
system.ruby.Directory_Controller.CleanReplacement      1172943      0.00%      0.00%
system.ruby.Directory_Controller.I.Fetch      2902344      0.00%      0.00%
system.ruby.Directory_Controller.M.Data       1729401      0.00%      0.00%
system.ruby.Directory_Controller.M.CleanReplacement      1172943      0.00%      0.00%
system.ruby.Directory_Controller.IM.Memory_Data      2902344      0.00%      0.00%
system.ruby.Directory_Controller.MI.Memory_Ack      1729401      0.00%      0.00%
system.ruby.L1Cache_Controller.Load          32435550      0.00%      0.00%
system.ruby.L1Cache_Controller.Ifetch       116407369      0.00%      0.00%
system.ruby.L1Cache_Controller.Store         14013062      0.00%      0.00%
system.ruby.L1Cache_Controller.Inv               8030      0.00%      0.00%
system.ruby.L1Cache_Controller.L1_Replacement      5521858      0.00%      0.00%
system.ruby.L1Cache_Controller.Data_Exclusive      4191167      0.00%      0.00%
system.ruby.L1Cache_Controller.Data_all_Acks      1337182      0.00%      0.00%
system.ruby.L1Cache_Controller.WB_Ack         5513983      0.00%      0.00%
system.ruby.L1Cache_Controller.NP.Load        4191043      0.00%      0.00%
system.ruby.L1Cache_Controller.NP.Ifetch         7873      0.00%      0.00%
system.ruby.L1Cache_Controller.NP.Store       1322942      0.00%      0.00%
system.ruby.L1Cache_Controller.NP.Inv             789      0.00%      0.00%
system.ruby.L1Cache_Controller.I.Load             124      0.00%      0.00%
system.ruby.L1Cache_Controller.I.Ifetch          6336      0.00%      0.00%
system.ruby.L1Cache_Controller.I.Store             31      0.00%      0.00%
system.ruby.L1Cache_Controller.I.L1_Replacement          918      0.00%      0.00%
system.ruby.L1Cache_Controller.S.Ifetch     116393160      0.00%      0.00%
system.ruby.L1Cache_Controller.S.Inv             7084      0.00%      0.00%
system.ruby.L1Cache_Controller.S.L1_Replacement         6957      0.00%      0.00%
system.ruby.L1Cache_Controller.E.Load        20203806      0.00%      0.00%
system.ruby.L1Cache_Controller.E.Store         917834      0.00%      0.00%
system.ruby.L1Cache_Controller.E.Inv               94      0.00%      0.00%
system.ruby.L1Cache_Controller.E.L1_Replacement      3273681      0.00%      0.00%
system.ruby.L1Cache_Controller.M.Load         8040577      0.00%      0.00%
system.ruby.L1Cache_Controller.M.Store       11772255      0.00%      0.00%
system.ruby.L1Cache_Controller.M.Inv               63      0.00%      0.00%
system.ruby.L1Cache_Controller.M.L1_Replacement      2240302      0.00%      0.00%
system.ruby.L1Cache_Controller.IS.Data_Exclusive      4191167      0.00%      0.00%
system.ruby.L1Cache_Controller.IS.Data_all_Acks        14209      0.00%      0.00%
system.ruby.L1Cache_Controller.IM.Data_all_Acks      1322973      0.00%      0.00%
system.ruby.L1Cache_Controller.M_I.WB_Ack      5513983      0.00%      0.00%
system.ruby.L2Cache_Controller.L1_GET_INSTR        14209      0.00%      0.00%
system.ruby.L2Cache_Controller.L1_GETS        4191167      0.00%      0.00%
system.ruby.L2Cache_Controller.L1_GETX        1322973      0.00%      0.00%
system.ruby.L2Cache_Controller.L1_PUTX        5513983      0.00%      0.00%
system.ruby.L2Cache_Controller.L2_Replacement      1729364      0.00%      0.00%
system.ruby.L2Cache_Controller.L2_Replacement_clean      1172980      0.00%      0.00%
system.ruby.L2Cache_Controller.Mem_Data       2902344      0.00%      0.00%
system.ruby.L2Cache_Controller.Mem_Ack        2902344      0.00%      0.00%
system.ruby.L2Cache_Controller.WB_Data             63      0.00%      0.00%
system.ruby.L2Cache_Controller.Ack_all           7967      0.00%      0.00%
system.ruby.L2Cache_Controller.Exclusive_Unblock      5514140      0.00%      0.00%
system.ruby.L2Cache_Controller.NP.L1_GET_INSTR        10029      0.00%      0.00%
system.ruby.L2Cache_Controller.NP.L1_GETS      1958334      0.00%      0.00%
system.ruby.L2Cache_Controller.NP.L1_GETX       933981      0.00%      0.00%
system.ruby.L2Cache_Controller.SS.L1_GET_INSTR         4180      0.00%      0.00%
system.ruby.L2Cache_Controller.SS.L2_Replacement            1      0.00%      0.00%
system.ruby.L2Cache_Controller.SS.L2_Replacement_clean         7872      0.00%      0.00%
system.ruby.L2Cache_Controller.M.L1_GETS      2232833      0.00%      0.00%
system.ruby.L2Cache_Controller.M.L1_GETX       388992      0.00%      0.00%
system.ruby.L2Cache_Controller.M.L2_Replacement      1729335      0.00%      0.00%
system.ruby.L2Cache_Controller.M.L2_Replacement_clean      1164979      0.00%      0.00%
system.ruby.L2Cache_Controller.MT.L1_PUTX      5513983      0.00%      0.00%
system.ruby.L2Cache_Controller.MT.L2_Replacement           28      0.00%      0.00%
system.ruby.L2Cache_Controller.MT.L2_Replacement_clean          129      0.00%      0.00%
system.ruby.L2Cache_Controller.M_I.Mem_Ack      2902344      0.00%      0.00%
system.ruby.L2Cache_Controller.MT_I.WB_Data           26      0.00%      0.00%
system.ruby.L2Cache_Controller.MT_I.Ack_all            2      0.00%      0.00%
system.ruby.L2Cache_Controller.MCT_I.WB_Data           37      0.00%      0.00%
system.ruby.L2Cache_Controller.MCT_I.Ack_all           92      0.00%      0.00%
system.ruby.L2Cache_Controller.I_I.Ack_all         7872      0.00%      0.00%
system.ruby.L2Cache_Controller.S_I.Ack_all            1      0.00%      0.00%
system.ruby.L2Cache_Controller.ISS.Mem_Data      1958334      0.00%      0.00%
system.ruby.L2Cache_Controller.IS.Mem_Data        10029      0.00%      0.00%
system.ruby.L2Cache_Controller.IM.Mem_Data       933981      0.00%      0.00%
system.ruby.L2Cache_Controller.MT_MB.Exclusive_Unblock      5514140      0.00%      0.00%

---------- End Simulation Statistics   ----------
