
---------- Begin Simulation Statistics ----------
sim_seconds                                  5.335400                       # Number of seconds simulated
sim_ticks                                5335399648500                       # Number of ticks simulated
final_tick                               5335399648500                       # Number of ticks from beginning of simulation (restored from checkpoints and never reset)
sim_freq                                 1000000000000                       # Frequency of simulated ticks
host_inst_rate                                 349324                       # Simulator instruction rate (inst/s)
host_op_rate                                   683038                       # Simulator op (including micro ops) rate (op/s)
host_tick_rate                            19745130708                       # Simulator tick rate (ticks/s)
host_mem_usage                                1124848                       # Number of bytes of host memory used
host_seconds                                   270.21                       # Real time elapsed on the host
sim_insts                                    94392088                       # Number of instructions simulated
sim_ops                                     184566000                       # Number of ops (including micro ops) simulated
system.voltage_domain.voltage                       1                       # Voltage in Volts
system.clk_domain.clock                          1000                       # Clock period in ticks
system.mem_ctrls.bytes_read::ruby.dir_cntrl0     35568704                       # Number of bytes read from this memory
system.mem_ctrls.bytes_read::total           35568704                       # Number of bytes read from this memory
system.mem_ctrls.bytes_written::ruby.dir_cntrl0     32960640                       # Number of bytes written to this memory
system.mem_ctrls.bytes_written::total        32960640                       # Number of bytes written to this memory
system.mem_ctrls.num_reads::ruby.dir_cntrl0       555761                       # Number of read requests responded to by this memory
system.mem_ctrls.num_reads::total              555761                       # Number of read requests responded to by this memory
system.mem_ctrls.num_writes::ruby.dir_cntrl0       515010                       # Number of write requests responded to by this memory
system.mem_ctrls.num_writes::total             515010                       # Number of write requests responded to by this memory
system.mem_ctrls.bw_read::ruby.dir_cntrl0      6666549                       # Total read bandwidth from this memory (bytes/s)
system.mem_ctrls.bw_read::total               6666549                       # Total read bandwidth from this memory (bytes/s)
system.mem_ctrls.bw_write::ruby.dir_cntrl0      6177727                       # Write bandwidth from this memory (bytes/s)
system.mem_ctrls.bw_write::total              6177727                       # Write bandwidth from this memory (bytes/s)
system.mem_ctrls.bw_total::ruby.dir_cntrl0     12844276                       # Total bandwidth to/from this memory (bytes/s)
system.mem_ctrls.bw_total::total             12844276                       # Total bandwidth to/from this memory (bytes/s)
system.mem_ctrls.readReqs                      555761                       # Number of read requests accepted
system.mem_ctrls.writeReqs                     515010                       # Number of write requests accepted
system.mem_ctrls.readBursts                    555761                       # Number of DRAM read bursts, including those serviced by the write queue
system.mem_ctrls.writeBursts                   515010                       # Number of DRAM write bursts, including those merged in the write queue
system.mem_ctrls.bytesReadDRAM               35565632                       # Total number of bytes read from DRAM
system.mem_ctrls.bytesReadWrQ                    3072                       # Total number of bytes read from write queue
system.mem_ctrls.bytesWritten                32958784                       # Total number of bytes written to DRAM
system.mem_ctrls.bytesReadSys                35568704                       # Total read bytes from the system interface side
system.mem_ctrls.bytesWrittenSys             32960640                       # Total written bytes from the system interface side
system.mem_ctrls.servicedByWrQ                     48                       # Number of DRAM read bursts serviced by the write queue
system.mem_ctrls.mergedWrBursts                     5                       # Number of DRAM write bursts merged with an existing one
system.mem_ctrls.neitherReadNorWriteReqs            0                       # Number of requests that are neither read nor write
system.mem_ctrls.perBankRdBursts::0             33907                       # Per bank write bursts
system.mem_ctrls.perBankRdBursts::1             33774                       # Per bank write bursts
system.mem_ctrls.perBankRdBursts::2             34410                       # Per bank write bursts
system.mem_ctrls.perBankRdBursts::3             34314                       # Per bank write bursts
system.mem_ctrls.perBankRdBursts::4             34864                       # Per bank write bursts
system.mem_ctrls.perBankRdBursts::5             34738                       # Per bank write bursts
system.mem_ctrls.perBankRdBursts::6             35306                       # Per bank write bursts
system.mem_ctrls.perBankRdBursts::7             34976                       # Per bank write bursts
system.mem_ctrls.perBankRdBursts::8             34718                       # Per bank write bursts
system.mem_ctrls.perBankRdBursts::9             34672                       # Per bank write bursts
system.mem_ctrls.perBankRdBursts::10            35086                       # Per bank write bursts
system.mem_ctrls.perBankRdBursts::11            35530                       # Per bank write bursts
system.mem_ctrls.perBankRdBursts::12            35326                       # Per bank write bursts
system.mem_ctrls.perBankRdBursts::13            35153                       # Per bank write bursts
system.mem_ctrls.perBankRdBursts::14            34665                       # Per bank write bursts
system.mem_ctrls.perBankRdBursts::15            34274                       # Per bank write bursts
system.mem_ctrls.perBankWrBursts::0             31911                       # Per bank write bursts
system.mem_ctrls.perBankWrBursts::1             31510                       # Per bank write bursts
system.mem_ctrls.perBankWrBursts::2             32117                       # Per bank write bursts
system.mem_ctrls.perBankWrBursts::3             32245                       # Per bank write bursts
system.mem_ctrls.perBankWrBursts::4             32415                       # Per bank write bursts
system.mem_ctrls.perBankWrBursts::5             32238                       # Per bank write bursts
system.mem_ctrls.perBankWrBursts::6             32677                       # Per bank write bursts
system.mem_ctrls.perBankWrBursts::7             32643                       # Per bank write bursts
system.mem_ctrls.perBankWrBursts::8             31914                       # Per bank write bursts
system.mem_ctrls.perBankWrBursts::9             31843                       # Per bank write bursts
system.mem_ctrls.perBankWrBursts::10            32208                       # Per bank write bursts
system.mem_ctrls.perBankWrBursts::11            32669                       # Per bank write bursts
system.mem_ctrls.perBankWrBursts::12            32510                       # Per bank write bursts
system.mem_ctrls.perBankWrBursts::13            32402                       # Per bank write bursts
system.mem_ctrls.perBankWrBursts::14            32001                       # Per bank write bursts
system.mem_ctrls.perBankWrBursts::15            31678                       # Per bank write bursts
system.mem_ctrls.numRdRetry                         0                       # Number of times read queue was full causing retry
system.mem_ctrls.numWrRetry                         0                       # Number of times write queue was full causing retry
system.mem_ctrls.totGap                  5335399495500                       # Total gap between requests
system.mem_ctrls.readPktSize::0                     0                       # Read request sizes (log2)
system.mem_ctrls.readPktSize::1                     0                       # Read request sizes (log2)
system.mem_ctrls.readPktSize::2                     0                       # Read request sizes (log2)
system.mem_ctrls.readPktSize::3                     0                       # Read request sizes (log2)
system.mem_ctrls.readPktSize::4                     0                       # Read request sizes (log2)
system.mem_ctrls.readPktSize::5                     0                       # Read request sizes (log2)
system.mem_ctrls.readPktSize::6                555761                       # Read request sizes (log2)
system.mem_ctrls.writePktSize::0                    0                       # Write request sizes (log2)
system.mem_ctrls.writePktSize::1                    0                       # Write request sizes (log2)
system.mem_ctrls.writePktSize::2                    0                       # Write request sizes (log2)
system.mem_ctrls.writePktSize::3                    0                       # Write request sizes (log2)
system.mem_ctrls.writePktSize::4                    0                       # Write request sizes (log2)
system.mem_ctrls.writePktSize::5                    0                       # Write request sizes (log2)
system.mem_ctrls.writePktSize::6               515010                       # Write request sizes (log2)
system.mem_ctrls.rdQLenPdf::0                  555707                       # What read queue length does an incoming req see
system.mem_ctrls.rdQLenPdf::1                       6                       # What read queue length does an incoming req see
system.mem_ctrls.rdQLenPdf::2                       0                       # What read queue length does an incoming req see
system.mem_ctrls.rdQLenPdf::3                       0                       # What read queue length does an incoming req see
system.mem_ctrls.rdQLenPdf::4                       0                       # What read queue length does an incoming req see
system.mem_ctrls.rdQLenPdf::5                       0                       # What read queue length does an incoming req see
system.mem_ctrls.rdQLenPdf::6                       0                       # What read queue length does an incoming req see
system.mem_ctrls.rdQLenPdf::7                       0                       # What read queue length does an incoming req see
system.mem_ctrls.rdQLenPdf::8                       0                       # What read queue length does an incoming req see
system.mem_ctrls.rdQLenPdf::9                       0                       # What read queue length does an incoming req see
system.mem_ctrls.rdQLenPdf::10                      0                       # What read queue length does an incoming req see
system.mem_ctrls.rdQLenPdf::11                      0                       # What read queue length does an incoming req see
system.mem_ctrls.rdQLenPdf::12                      0                       # What read queue length does an incoming req see
system.mem_ctrls.rdQLenPdf::13                      0                       # What read queue length does an incoming req see
system.mem_ctrls.rdQLenPdf::14                      0                       # What read queue length does an incoming req see
system.mem_ctrls.rdQLenPdf::15                      0                       # What read queue length does an incoming req see
system.mem_ctrls.rdQLenPdf::16                      0                       # What read queue length does an incoming req see
system.mem_ctrls.rdQLenPdf::17                      0                       # What read queue length does an incoming req see
system.mem_ctrls.rdQLenPdf::18                      0                       # What read queue length does an incoming req see
system.mem_ctrls.rdQLenPdf::19                      0                       # What read queue length does an incoming req see
system.mem_ctrls.rdQLenPdf::20                      0                       # What read queue length does an incoming req see
system.mem_ctrls.rdQLenPdf::21                      0                       # What read queue length does an incoming req see
system.mem_ctrls.rdQLenPdf::22                      0                       # What read queue length does an incoming req see
system.mem_ctrls.rdQLenPdf::23                      0                       # What read queue length does an incoming req see
system.mem_ctrls.rdQLenPdf::24                      0                       # What read queue length does an incoming req see
system.mem_ctrls.rdQLenPdf::25                      0                       # What read queue length does an incoming req see
system.mem_ctrls.rdQLenPdf::26                      0                       # What read queue length does an incoming req see
system.mem_ctrls.rdQLenPdf::27                      0                       # What read queue length does an incoming req see
system.mem_ctrls.rdQLenPdf::28                      0                       # What read queue length does an incoming req see
system.mem_ctrls.rdQLenPdf::29                      0                       # What read queue length does an incoming req see
system.mem_ctrls.rdQLenPdf::30                      0                       # What read queue length does an incoming req see
system.mem_ctrls.rdQLenPdf::31                      0                       # What read queue length does an incoming req see
system.mem_ctrls.wrQLenPdf::0                       1                       # What write queue length does an incoming req see
system.mem_ctrls.wrQLenPdf::1                       1                       # What write queue length does an incoming req see
system.mem_ctrls.wrQLenPdf::2                       1                       # What write queue length does an incoming req see
system.mem_ctrls.wrQLenPdf::3                       1                       # What write queue length does an incoming req see
system.mem_ctrls.wrQLenPdf::4                       1                       # What write queue length does an incoming req see
system.mem_ctrls.wrQLenPdf::5                       1                       # What write queue length does an incoming req see
system.mem_ctrls.wrQLenPdf::6                       1                       # What write queue length does an incoming req see
system.mem_ctrls.wrQLenPdf::7                       1                       # What write queue length does an incoming req see
system.mem_ctrls.wrQLenPdf::8                       1                       # What write queue length does an incoming req see
system.mem_ctrls.wrQLenPdf::9                       1                       # What write queue length does an incoming req see
system.mem_ctrls.wrQLenPdf::10                      1                       # What write queue length does an incoming req see
system.mem_ctrls.wrQLenPdf::11                      1                       # What write queue length does an incoming req see
system.mem_ctrls.wrQLenPdf::12                      1                       # What write queue length does an incoming req see
system.mem_ctrls.wrQLenPdf::13                      1                       # What write queue length does an incoming req see
system.mem_ctrls.wrQLenPdf::14                      1                       # What write queue length does an incoming req see
system.mem_ctrls.wrQLenPdf::15                   1974                       # What write queue length does an incoming req see
system.mem_ctrls.wrQLenPdf::16                   3127                       # What write queue length does an incoming req see
system.mem_ctrls.wrQLenPdf::17                  31766                       # What write queue length does an incoming req see
system.mem_ctrls.wrQLenPdf::18                  32334                       # What write queue length does an incoming req see
system.mem_ctrls.wrQLenPdf::19                  31878                       # What write queue length does an incoming req see
system.mem_ctrls.wrQLenPdf::20                  32420                       # What write queue length does an incoming req see
system.mem_ctrls.wrQLenPdf::21                  32394                       # What write queue length does an incoming req see
system.mem_ctrls.wrQLenPdf::22                  31617                       # What write queue length does an incoming req see
system.mem_ctrls.wrQLenPdf::23                  32266                       # What write queue length does an incoming req see
system.mem_ctrls.wrQLenPdf::24                  32321                       # What write queue length does an incoming req see
system.mem_ctrls.wrQLenPdf::25                  31670                       # What write queue length does an incoming req see
system.mem_ctrls.wrQLenPdf::26                  31740                       # What write queue length does an incoming req see
system.mem_ctrls.wrQLenPdf::27                  31645                       # What write queue length does an incoming req see
system.mem_ctrls.wrQLenPdf::28                  31734                       # What write queue length does an incoming req see
system.mem_ctrls.wrQLenPdf::29                  31320                       # What write queue length does an incoming req see
system.mem_ctrls.wrQLenPdf::30                  31395                       # What write queue length does an incoming req see
system.mem_ctrls.wrQLenPdf::31                  31465                       # What write queue length does an incoming req see
system.mem_ctrls.wrQLenPdf::32                  31247                       # What write queue length does an incoming req see
system.mem_ctrls.wrQLenPdf::33                    114                       # What write queue length does an incoming req see
system.mem_ctrls.wrQLenPdf::34                     96                       # What write queue length does an incoming req see
system.mem_ctrls.wrQLenPdf::35                    101                       # What write queue length does an incoming req see
system.mem_ctrls.wrQLenPdf::36                     78                       # What write queue length does an incoming req see
system.mem_ctrls.wrQLenPdf::37                     71                       # What write queue length does an incoming req see
system.mem_ctrls.wrQLenPdf::38                     62                       # What write queue length does an incoming req see
system.mem_ctrls.wrQLenPdf::39                     48                       # What write queue length does an incoming req see
system.mem_ctrls.wrQLenPdf::40                     38                       # What write queue length does an incoming req see
system.mem_ctrls.wrQLenPdf::41                     27                       # What write queue length does an incoming req see
system.mem_ctrls.wrQLenPdf::42                     21                       # What write queue length does an incoming req see
system.mem_ctrls.wrQLenPdf::43                     11                       # What write queue length does an incoming req see
system.mem_ctrls.wrQLenPdf::44                      6                       # What write queue length does an incoming req see
system.mem_ctrls.wrQLenPdf::45                      2                       # What write queue length does an incoming req see
system.mem_ctrls.wrQLenPdf::46                      1                       # What write queue length does an incoming req see
system.mem_ctrls.wrQLenPdf::47                      1                       # What write queue length does an incoming req see
system.mem_ctrls.wrQLenPdf::48                      0                       # What write queue length does an incoming req see
system.mem_ctrls.wrQLenPdf::49                      0                       # What write queue length does an incoming req see
system.mem_ctrls.wrQLenPdf::50                      0                       # What write queue length does an incoming req see
system.mem_ctrls.wrQLenPdf::51                      0                       # What write queue length does an incoming req see
system.mem_ctrls.wrQLenPdf::52                      0                       # What write queue length does an incoming req see
system.mem_ctrls.wrQLenPdf::53                      0                       # What write queue length does an incoming req see
system.mem_ctrls.wrQLenPdf::54                      0                       # What write queue length does an incoming req see
system.mem_ctrls.wrQLenPdf::55                      0                       # What write queue length does an incoming req see
system.mem_ctrls.wrQLenPdf::56                      0                       # What write queue length does an incoming req see
system.mem_ctrls.wrQLenPdf::57                      0                       # What write queue length does an incoming req see
system.mem_ctrls.wrQLenPdf::58                      0                       # What write queue length does an incoming req see
system.mem_ctrls.wrQLenPdf::59                      0                       # What write queue length does an incoming req see
system.mem_ctrls.wrQLenPdf::60                      0                       # What write queue length does an incoming req see
system.mem_ctrls.wrQLenPdf::61                      0                       # What write queue length does an incoming req see
system.mem_ctrls.wrQLenPdf::62                      0                       # What write queue length does an incoming req see
system.mem_ctrls.wrQLenPdf::63                      0                       # What write queue length does an incoming req see
system.mem_ctrls.bytesPerActivate::samples       152420                       # Bytes accessed per row activation
system.mem_ctrls.bytesPerActivate::mean    449.574177                       # Bytes accessed per row activation
system.mem_ctrls.bytesPerActivate::gmean   271.227709                       # Bytes accessed per row activation
system.mem_ctrls.bytesPerActivate::stdev   386.044026                       # Bytes accessed per row activation
system.mem_ctrls.bytesPerActivate::0-127        40141     26.34%     26.34% # Bytes accessed per row activation
system.mem_ctrls.bytesPerActivate::128-255        27884     18.29%     44.63% # Bytes accessed per row activation
system.mem_ctrls.bytesPerActivate::256-383        14659      9.62%     54.25% # Bytes accessed per row activation
system.mem_ctrls.bytesPerActivate::384-511         9805      6.43%     60.68% # Bytes accessed per row activation
system.mem_ctrls.bytesPerActivate::512-639         8824      5.79%     66.47% # Bytes accessed per row activation
system.mem_ctrls.bytesPerActivate::640-767         5851      3.84%     70.31% # Bytes accessed per row activation
system.mem_ctrls.bytesPerActivate::768-895         4765      3.13%     73.43% # Bytes accessed per row activation
system.mem_ctrls.bytesPerActivate::896-1023         4916      3.23%     76.66% # Bytes accessed per row activation
system.mem_ctrls.bytesPerActivate::1024-1151        35575     23.34%    100.00% # Bytes accessed per row activation
system.mem_ctrls.bytesPerActivate::total       152420                       # Bytes accessed per row activation
system.mem_ctrls.rdPerTurnAround::samples        31196                       # Reads before turning the bus around for writes
system.mem_ctrls.rdPerTurnAround::mean      17.813309                       # Reads before turning the bus around for writes
system.mem_ctrls.rdPerTurnAround::stdev    325.692940                       # Reads before turning the bus around for writes
system.mem_ctrls.rdPerTurnAround::0-2047        31195    100.00%    100.00% # Reads before turning the bus around for writes
system.mem_ctrls.rdPerTurnAround::57344-59391            1      0.00%    100.00% # Reads before turning the bus around for writes
system.mem_ctrls.rdPerTurnAround::total         31196                       # Reads before turning the bus around for writes
system.mem_ctrls.wrPerTurnAround::samples        31196                       # Writes before turning the bus around for reads
system.mem_ctrls.wrPerTurnAround::mean      16.507918                       # Writes before turning the bus around for reads
system.mem_ctrls.wrPerTurnAround::gmean     16.406002                       # Writes before turning the bus around for reads
system.mem_ctrls.wrPerTurnAround::stdev      2.206295                       # Writes before turning the bus around for reads
system.mem_ctrls.wrPerTurnAround::16            28944     92.78%     92.78% # Writes before turning the bus around for reads
system.mem_ctrls.wrPerTurnAround::17               18      0.06%     92.84% # Writes before turning the bus around for reads
system.mem_ctrls.wrPerTurnAround::18              491      1.57%     94.41% # Writes before turning the bus around for reads
system.mem_ctrls.wrPerTurnAround::19                9      0.03%     94.44% # Writes before turning the bus around for reads
system.mem_ctrls.wrPerTurnAround::20               24      0.08%     94.52% # Writes before turning the bus around for reads
system.mem_ctrls.wrPerTurnAround::21              433      1.39%     95.91% # Writes before turning the bus around for reads
system.mem_ctrls.wrPerTurnAround::22              125      0.40%     96.31% # Writes before turning the bus around for reads
system.mem_ctrls.wrPerTurnAround::23               59      0.19%     96.50% # Writes before turning the bus around for reads
system.mem_ctrls.wrPerTurnAround::24              576      1.85%     98.34% # Writes before turning the bus around for reads
system.mem_ctrls.wrPerTurnAround::25               96      0.31%     98.65% # Writes before turning the bus around for reads
system.mem_ctrls.wrPerTurnAround::26               10      0.03%     98.68% # Writes before turning the bus around for reads
system.mem_ctrls.wrPerTurnAround::27               25      0.08%     98.76% # Writes before turning the bus around for reads
system.mem_ctrls.wrPerTurnAround::28              300      0.96%     99.72% # Writes before turning the bus around for reads
system.mem_ctrls.wrPerTurnAround::29                2      0.01%     99.73% # Writes before turning the bus around for reads
system.mem_ctrls.wrPerTurnAround::30                5      0.02%     99.75% # Writes before turning the bus around for reads
system.mem_ctrls.wrPerTurnAround::31               12      0.04%     99.79% # Writes before turning the bus around for reads
system.mem_ctrls.wrPerTurnAround::32                1      0.00%     99.79% # Writes before turning the bus around for reads
system.mem_ctrls.wrPerTurnAround::33                3      0.01%     99.80% # Writes before turning the bus around for reads
system.mem_ctrls.wrPerTurnAround::34                2      0.01%     99.80% # Writes before turning the bus around for reads
system.mem_ctrls.wrPerTurnAround::35                6      0.02%     99.82% # Writes before turning the bus around for reads
system.mem_ctrls.wrPerTurnAround::36                2      0.01%     99.83% # Writes before turning the bus around for reads
system.mem_ctrls.wrPerTurnAround::37                2      0.01%     99.84% # Writes before turning the bus around for reads
system.mem_ctrls.wrPerTurnAround::38                7      0.02%     99.86% # Writes before turning the bus around for reads
system.mem_ctrls.wrPerTurnAround::39                7      0.02%     99.88% # Writes before turning the bus around for reads
system.mem_ctrls.wrPerTurnAround::40                4      0.01%     99.89% # Writes before turning the bus around for reads
system.mem_ctrls.wrPerTurnAround::41                4      0.01%     99.91% # Writes before turning the bus around for reads
system.mem_ctrls.wrPerTurnAround::42                6      0.02%     99.93% # Writes before turning the bus around for reads
system.mem_ctrls.wrPerTurnAround::43                3      0.01%     99.94% # Writes before turning the bus around for reads
system.mem_ctrls.wrPerTurnAround::44                4      0.01%     99.95% # Writes before turning the bus around for reads
system.mem_ctrls.wrPerTurnAround::45                3      0.01%     99.96% # Writes before turning the bus around for reads
system.mem_ctrls.wrPerTurnAround::46                1      0.00%     99.96% # Writes before turning the bus around for reads
system.mem_ctrls.wrPerTurnAround::47                3      0.01%     99.97% # Writes before turning the bus around for reads
system.mem_ctrls.wrPerTurnAround::48                4      0.01%     99.98% # Writes before turning the bus around for reads
system.mem_ctrls.wrPerTurnAround::50                1      0.00%     99.99% # Writes before turning the bus around for reads
system.mem_ctrls.wrPerTurnAround::51                4      0.01%    100.00% # Writes before turning the bus around for reads
system.mem_ctrls.wrPerTurnAround::total         31196                       # Writes before turning the bus around for reads
system.mem_ctrls.totQLat                   7557047251                       # Total ticks spent queuing
system.mem_ctrls.totMemAccLat             17976666001                       # Total ticks spent from burst creation until serviced by the DRAM
system.mem_ctrls.totBusLat                 2778565000                       # Total ticks spent in databus transfers
system.mem_ctrls.avgQLat                     13598.83                       # Average queueing delay per DRAM burst
system.mem_ctrls.avgBusLat                    5000.00                       # Average bus latency per DRAM burst
system.mem_ctrls.avgMemAccLat                32348.83                       # Average memory access latency per DRAM burst
system.mem_ctrls.avgRdBW                         6.67                       # Average DRAM read bandwidth in MiByte/s
system.mem_ctrls.avgWrBW                         6.18                       # Average achieved write bandwidth in MiByte/s
system.mem_ctrls.avgRdBWSys                      6.67                       # Average system read bandwidth in MiByte/s
system.mem_ctrls.avgWrBWSys                      6.18                       # Average system write bandwidth in MiByte/s
system.mem_ctrls.peakBW                      12800.00                       # Theoretical peak bandwidth in MiByte/s
system.mem_ctrls.busUtil                         0.10                       # Data bus utilization in percentage
system.mem_ctrls.busUtilRead                     0.05                       # Data bus utilization in percentage for reads
system.mem_ctrls.busUtilWrite                    0.05                       # Data bus utilization in percentage for writes
system.mem_ctrls.avgRdQLen                       1.00                       # Average read queue length when enqueuing
system.mem_ctrls.avgWrQLen                      25.41                       # Average write queue length when enqueuing
system.mem_ctrls.readRowHits                   484765                       # Number of row buffer hits during reads
system.mem_ctrls.writeRowHits                  433507                       # Number of row buffer hits during writes
system.mem_ctrls.readRowHitRate                 87.23                       # Row buffer hit rate for reads
system.mem_ctrls.writeRowHitRate                84.18                       # Row buffer hit rate for writes
system.mem_ctrls.avgGap                    4982764.28                       # Average gap between requests
system.mem_ctrls.pageHitRate                    85.76                       # Row buffer hit rate, read and write combined
system.mem_ctrls_0.actEnergy                582157800                       # Energy for activate commands per rank (pJ)
system.mem_ctrls_0.preEnergy                317645625                       # Energy for precharge commands per rank (pJ)
system.mem_ctrls_0.readEnergy              2155038600                       # Energy for read commands per rank (pJ)
system.mem_ctrls_0.writeEnergy             1670258880                       # Energy for write commands per rank (pJ)
system.mem_ctrls_0.refreshEnergy         348482094480                       # Energy for refresh commands per rank (pJ)
system.mem_ctrls_0.actBackEnergy         163800992340                       # Energy for active background per rank (pJ)
system.mem_ctrls_0.preBackEnergy         3057552334500                       # Energy for precharge background per rank (pJ)
system.mem_ctrls_0.totalEnergy           3574560522225                       # Total energy per rank (pJ)
system.mem_ctrls_0.averagePower            669.971025                       # Core power per rank (mW)
system.mem_ctrls_0.memoryStateTime::IDLE 5085997964750                       # Time in different power states
system.mem_ctrls_0.memoryStateTime::REF  178160580000                       # Time in different power states
system.mem_ctrls_0.memoryStateTime::PRE_PDN            0                       # Time in different power states
system.mem_ctrls_0.memoryStateTime::ACT   71240517750                       # Time in different power states
system.mem_ctrls_0.memoryStateTime::ACT_PDN            0                       # Time in different power states
system.mem_ctrls_1.actEnergy                570137400                       # Energy for activate commands per rank (pJ)
system.mem_ctrls_1.preEnergy                311086875                       # Energy for precharge commands per rank (pJ)
system.mem_ctrls_1.readEnergy              2179483800                       # Energy for read commands per rank (pJ)
system.mem_ctrls_1.writeEnergy             1666818000                       # Energy for write commands per rank (pJ)
system.mem_ctrls_1.refreshEnergy         348482094480                       # Energy for refresh commands per rank (pJ)
system.mem_ctrls_1.actBackEnergy         163766725650                       # Energy for active background per rank (pJ)
system.mem_ctrls_1.preBackEnergy         3057582393000                       # Energy for precharge background per rank (pJ)
system.mem_ctrls_1.totalEnergy           3574558739205                       # Total energy per rank (pJ)
system.mem_ctrls_1.averagePower            669.970691                       # Core power per rank (mW)
system.mem_ctrls_1.memoryStateTime::IDLE 5086053041001                       # Time in different power states
system.mem_ctrls_1.memoryStateTime::REF  178160580000                       # Time in different power states
system.mem_ctrls_1.memoryStateTime::PRE_PDN            0                       # Time in different power states
system.mem_ctrls_1.memoryStateTime::ACT   71185688999                       # Time in different power states
system.mem_ctrls_1.memoryStateTime::ACT_PDN            0                       # Time in different power states
system.cpu_voltage_domain.voltage                   1                       # Voltage in Volts
system.cpu_clk_domain.clock                       500                       # Clock period in ticks
system.cpu.apic_clk_domain.clock                 8000                       # Clock period in ticks
system.cpu.numCycles                      10670799297                       # number of cpu cycles simulated
system.cpu.numWorkItemsStarted                      0                       # number of work items this cpu started
system.cpu.numWorkItemsCompleted                    0                       # number of work items this cpu completed
system.cpu.committedInsts                    94392088                       # Number of instructions committed
system.cpu.committedOps                     184566000                       # Number of ops (including micro ops) committed
system.cpu.num_int_alu_accesses             175643959                       # Number of integer alu accesses
system.cpu.num_fp_alu_accesses                  41144                       # Number of float alu accesses
system.cpu.num_func_calls                     2321736                       # number of times a function call or return occured
system.cpu.num_conditional_control_insts     16773704                       # number of instructions that are conditional controls
system.cpu.num_int_insts                    175643959                       # number of integer instructions
system.cpu.num_fp_insts                         41144                       # number of float instructions
system.cpu.num_int_register_reads           332748208                       # number of times the integer registers were read
system.cpu.num_int_register_writes          146156347                       # number of times the integer registers were written
system.cpu.num_fp_register_reads                67816                       # number of times the floating registers were read
system.cpu.num_fp_register_writes               32733                       # number of times the floating registers were written
system.cpu.num_cc_register_reads             96883057                       # number of times the CC registers were read
system.cpu.num_cc_register_writes            67238845                       # number of times the CC registers were written
system.cpu.num_mem_refs                      25575314                       # number of memory refs
system.cpu.num_load_insts                    15157561                       # Number of load instructions
system.cpu.num_store_insts                   10417753                       # Number of store instructions
system.cpu.num_idle_cycles               9811229318.598162                       # Number of idle cycles
system.cpu.num_busy_cycles               859569978.401839                       # Number of busy cycles
system.cpu.not_idle_fraction                 0.080553                       # Percentage of non-idle cycles
system.cpu.idle_fraction                     0.919447                       # Percentage of idle cycles
system.cpu.Branches                          20012787                       # Number of branches fetched
system.cpu.op_class::No_OpClass               1142209      0.62%      0.62% # Class of executed instruction
system.cpu.op_class::IntAlu                 157593096     85.38%     86.00% # Class of executed instruction
system.cpu.op_class::IntMult                   123968      0.07%     86.07% # Class of executed instruction
system.cpu.op_class::IntDiv                    109149      0.06%     86.13% # Class of executed instruction
system.cpu.op_class::FloatAdd                   29248      0.02%     86.15% # Class of executed instruction
system.cpu.op_class::FloatCmp                       0      0.00%     86.15% # Class of executed instruction
system.cpu.op_class::FloatCvt                      16      0.00%     86.15% # Class of executed instruction
system.cpu.op_class::FloatMult                      0      0.00%     86.15% # Class of executed instruction
system.cpu.op_class::FloatDiv                       0      0.00%     86.15% # Class of executed instruction
system.cpu.op_class::FloatSqrt                      0      0.00%     86.15% # Class of executed instruction
system.cpu.op_class::SimdAdd                        0      0.00%     86.15% # Class of executed instruction
system.cpu.op_class::SimdAddAcc                     0      0.00%     86.15% # Class of executed instruction
system.cpu.op_class::SimdAlu                        0      0.00%     86.15% # Class of executed instruction
system.cpu.op_class::SimdCmp                        0      0.00%     86.15% # Class of executed instruction
system.cpu.op_class::SimdCvt                        0      0.00%     86.15% # Class of executed instruction
system.cpu.op_class::SimdMisc                       0      0.00%     86.15% # Class of executed instruction
system.cpu.op_class::SimdMult                       0      0.00%     86.15% # Class of executed instruction
system.cpu.op_class::SimdMultAcc                    0      0.00%     86.15% # Class of executed instruction
system.cpu.op_class::SimdShift                      0      0.00%     86.15% # Class of executed instruction
system.cpu.op_class::SimdShiftAcc                   0      0.00%     86.15% # Class of executed instruction
system.cpu.op_class::SimdSqrt                       0      0.00%     86.15% # Class of executed instruction
system.cpu.op_class::SimdFloatAdd                   0      0.00%     86.15% # Class of executed instruction
system.cpu.op_class::SimdFloatAlu                   0      0.00%     86.15% # Class of executed instruction
system.cpu.op_class::SimdFloatCmp                   0      0.00%     86.15% # Class of executed instruction
system.cpu.op_class::SimdFloatCvt                   0      0.00%     86.15% # Class of executed instruction
system.cpu.op_class::SimdFloatDiv                   0      0.00%     86.15% # Class of executed instruction
system.cpu.op_class::SimdFloatMisc                  0      0.00%     86.15% # Class of executed instruction
system.cpu.op_class::SimdFloatMult                  0      0.00%     86.15% # Class of executed instruction
system.cpu.op_class::SimdFloatMultAcc               0      0.00%     86.15% # Class of executed instruction
system.cpu.op_class::SimdFloatSqrt                  0      0.00%     86.15% # Class of executed instruction
system.cpu.op_class::MemRead                 15152588      8.21%     94.36% # Class of executed instruction
system.cpu.op_class::MemWrite                10417753      5.64%    100.00% # Class of executed instruction
system.cpu.op_class::IprAccess                      0      0.00%    100.00% # Class of executed instruction
system.cpu.op_class::InstPrefetch                   0      0.00%    100.00% # Class of executed instruction
system.cpu.op_class::total                  184568027                       # Class of executed instruction
system.cpu.kern.inst.arm                            0                       # number of arm instructions executed
system.cpu.kern.inst.quiesce                        0                       # number of quiesce instructions executed
system.iobus.trans_dist::ReadReq               842193                       # Transaction distribution
system.iobus.trans_dist::ReadResp              842193                       # Transaction distribution
system.iobus.trans_dist::WriteReq               12549                       # Transaction distribution
system.iobus.trans_dist::WriteResp              12549                       # Transaction distribution
system.iobus.trans_dist::MessageReq              1615                       # Transaction distribution
system.iobus.trans_dist::MessageResp             1615                       # Transaction distribution
system.iobus.pkt_count_system.pc.south_bridge.io_apic.int_master::system.ruby.l1_cntrl0.sequencer.pio-slave-port         3230                       # Packet count per connected master and slave (bytes)
system.iobus.pkt_count_system.pc.south_bridge.io_apic.int_master::total         3230                       # Packet count per connected master and slave (bytes)
system.iobus.pkt_count_system.ruby.l1_cntrl0.sequencer.mem-master-port::system.pc.south_bridge.cmos.pio           48                       # Packet count per connected master and slave (bytes)
system.iobus.pkt_count_system.ruby.l1_cntrl0.sequencer.mem-master-port::system.pc.south_bridge.dma1.pio            6                       # Packet count per connected master and slave (bytes)
system.iobus.pkt_count_system.ruby.l1_cntrl0.sequencer.mem-master-port::system.pc.south_bridge.ide.pio         6764                       # Packet count per connected master and slave (bytes)
system.iobus.pkt_count_system.ruby.l1_cntrl0.sequencer.mem-master-port::system.pc.south_bridge.ide-pciconf          180                       # Packet count per connected master and slave (bytes)
system.iobus.pkt_count_system.ruby.l1_cntrl0.sequencer.mem-master-port::system.pc.south_bridge.keyboard.pio         1364                       # Packet count per connected master and slave (bytes)
system.iobus.pkt_count_system.ruby.l1_cntrl0.sequencer.mem-master-port::system.pc.south_bridge.pic1.pio          130                       # Packet count per connected master and slave (bytes)
system.iobus.pkt_count_system.ruby.l1_cntrl0.sequencer.mem-master-port::system.pc.south_bridge.pic2.pio           54                       # Packet count per connected master and slave (bytes)
system.iobus.pkt_count_system.ruby.l1_cntrl0.sequencer.mem-master-port::system.pc.south_bridge.pit.pio           30                       # Packet count per connected master and slave (bytes)
system.iobus.pkt_count_system.ruby.l1_cntrl0.sequencer.mem-master-port::system.pc.south_bridge.speaker.pio       934582                       # Packet count per connected master and slave (bytes)
system.iobus.pkt_count_system.ruby.l1_cntrl0.sequencer.mem-master-port::system.pc.south_bridge.io_apic.pio         1554                       # Packet count per connected master and slave (bytes)
system.iobus.pkt_count_system.ruby.l1_cntrl0.sequencer.mem-master-port::system.pc.i_dont_exist1.pio          174                       # Packet count per connected master and slave (bytes)
system.iobus.pkt_count_system.ruby.l1_cntrl0.sequencer.mem-master-port::system.pc.behind_pci.pio            2                       # Packet count per connected master and slave (bytes)
system.iobus.pkt_count_system.ruby.l1_cntrl0.sequencer.mem-master-port::system.pc.com_1.pio        29328                       # Packet count per connected master and slave (bytes)
system.iobus.pkt_count_system.ruby.l1_cntrl0.sequencer.mem-master-port::system.pc.fake_com_2.pio           12                       # Packet count per connected master and slave (bytes)
system.iobus.pkt_count_system.ruby.l1_cntrl0.sequencer.mem-master-port::system.pc.fake_com_3.pio           12                       # Packet count per connected master and slave (bytes)
system.iobus.pkt_count_system.ruby.l1_cntrl0.sequencer.mem-master-port::system.pc.fake_com_4.pio           12                       # Packet count per connected master and slave (bytes)
system.iobus.pkt_count_system.ruby.l1_cntrl0.sequencer.mem-master-port::system.pc.fake_floppy.pio           10                       # Packet count per connected master and slave (bytes)
system.iobus.pkt_count_system.ruby.l1_cntrl0.sequencer.mem-master-port::system.ruby.l1_cntrl0.sequencer.pio-slave-port       733096                       # Packet count per connected master and slave (bytes)
system.iobus.pkt_count_system.ruby.l1_cntrl0.sequencer.mem-master-port::system.pc.pciconfig.pio         2126                       # Packet count per connected master and slave (bytes)
system.iobus.pkt_count_system.ruby.l1_cntrl0.sequencer.mem-master-port::total      1709484                       # Packet count per connected master and slave (bytes)
system.iobus.pkt_count::total                 1712714                       # Packet count per connected master and slave (bytes)
system.iobus.pkt_size_system.pc.south_bridge.io_apic.int_master::system.ruby.l1_cntrl0.sequencer.pio-slave-port         6460                       # Cumulative packet size per connected master and slave (bytes)
system.iobus.pkt_size_system.pc.south_bridge.io_apic.int_master::total         6460                       # Cumulative packet size per connected master and slave (bytes)
system.iobus.pkt_size_system.ruby.l1_cntrl0.sequencer.mem-master-port::system.pc.south_bridge.cmos.pio           24                       # Cumulative packet size per connected master and slave (bytes)
system.iobus.pkt_size_system.ruby.l1_cntrl0.sequencer.mem-master-port::system.pc.south_bridge.dma1.pio            3                       # Cumulative packet size per connected master and slave (bytes)
system.iobus.pkt_size_system.ruby.l1_cntrl0.sequencer.mem-master-port::system.pc.south_bridge.ide.pio         4242                       # Cumulative packet size per connected master and slave (bytes)
system.iobus.pkt_size_system.ruby.l1_cntrl0.sequencer.mem-master-port::system.pc.south_bridge.ide-pciconf          221                       # Cumulative packet size per connected master and slave (bytes)
system.iobus.pkt_size_system.ruby.l1_cntrl0.sequencer.mem-master-port::system.pc.south_bridge.keyboard.pio          682                       # Cumulative packet size per connected master and slave (bytes)
system.iobus.pkt_size_system.ruby.l1_cntrl0.sequencer.mem-master-port::system.pc.south_bridge.pic1.pio           65                       # Cumulative packet size per connected master and slave (bytes)
system.iobus.pkt_size_system.ruby.l1_cntrl0.sequencer.mem-master-port::system.pc.south_bridge.pic2.pio           27                       # Cumulative packet size per connected master and slave (bytes)
system.iobus.pkt_size_system.ruby.l1_cntrl0.sequencer.mem-master-port::system.pc.south_bridge.pit.pio           15                       # Cumulative packet size per connected master and slave (bytes)
system.iobus.pkt_size_system.ruby.l1_cntrl0.sequencer.mem-master-port::system.pc.south_bridge.speaker.pio       467291                       # Cumulative packet size per connected master and slave (bytes)
system.iobus.pkt_size_system.ruby.l1_cntrl0.sequencer.mem-master-port::system.pc.south_bridge.io_apic.pio         3108                       # Cumulative packet size per connected master and slave (bytes)
system.iobus.pkt_size_system.ruby.l1_cntrl0.sequencer.mem-master-port::system.pc.i_dont_exist1.pio           87                       # Cumulative packet size per connected master and slave (bytes)
system.iobus.pkt_size_system.ruby.l1_cntrl0.sequencer.mem-master-port::system.pc.behind_pci.pio            1                       # Cumulative packet size per connected master and slave (bytes)
system.iobus.pkt_size_system.ruby.l1_cntrl0.sequencer.mem-master-port::system.pc.com_1.pio        14664                       # Cumulative packet size per connected master and slave (bytes)
system.iobus.pkt_size_system.ruby.l1_cntrl0.sequencer.mem-master-port::system.pc.fake_com_2.pio            6                       # Cumulative packet size per connected master and slave (bytes)
system.iobus.pkt_size_system.ruby.l1_cntrl0.sequencer.mem-master-port::system.pc.fake_com_3.pio            6                       # Cumulative packet size per connected master and slave (bytes)
system.iobus.pkt_size_system.ruby.l1_cntrl0.sequencer.mem-master-port::system.pc.fake_com_4.pio            6                       # Cumulative packet size per connected master and slave (bytes)
system.iobus.pkt_size_system.ruby.l1_cntrl0.sequencer.mem-master-port::system.pc.fake_floppy.pio            5                       # Cumulative packet size per connected master and slave (bytes)
system.iobus.pkt_size_system.ruby.l1_cntrl0.sequencer.mem-master-port::system.ruby.l1_cntrl0.sequencer.pio-slave-port      1466186                       # Cumulative packet size per connected master and slave (bytes)
system.iobus.pkt_size_system.ruby.l1_cntrl0.sequencer.mem-master-port::system.pc.pciconfig.pio         4252                       # Cumulative packet size per connected master and slave (bytes)
system.iobus.pkt_size_system.ruby.l1_cntrl0.sequencer.mem-master-port::total      1960891                       # Cumulative packet size per connected master and slave (bytes)
system.iobus.pkt_size::total                  1967351                       # Cumulative packet size per connected master and slave (bytes)
system.iobus.reqLayer0.occupancy                48000                       # Layer occupancy (ticks)
system.iobus.reqLayer0.utilization                0.0                       # Layer utilization (%)
system.iobus.reqLayer1.occupancy                 7000                       # Layer occupancy (ticks)
system.iobus.reqLayer1.utilization                0.0                       # Layer utilization (%)
system.iobus.reqLayer2.occupancy              5945000                       # Layer occupancy (ticks)
system.iobus.reqLayer2.utilization                0.0                       # Layer utilization (%)
system.iobus.reqLayer3.occupancy               144000                       # Layer occupancy (ticks)
system.iobus.reqLayer3.utilization                0.0                       # Layer utilization (%)
system.iobus.reqLayer4.occupancy              1060500                       # Layer occupancy (ticks)
system.iobus.reqLayer4.utilization                0.0                       # Layer utilization (%)
system.iobus.reqLayer5.occupancy               135500                       # Layer occupancy (ticks)
system.iobus.reqLayer5.utilization                0.0                       # Layer utilization (%)
system.iobus.reqLayer6.occupancy                58500                       # Layer occupancy (ticks)
system.iobus.reqLayer6.utilization                0.0                       # Layer utilization (%)
system.iobus.reqLayer7.occupancy                32500                       # Layer occupancy (ticks)
system.iobus.reqLayer7.utilization                0.0                       # Layer utilization (%)
system.iobus.reqLayer8.occupancy            467293000                       # Layer occupancy (ticks)
system.iobus.reqLayer8.utilization                0.0                       # Layer utilization (%)
system.iobus.reqLayer9.occupancy              1473500                       # Layer occupancy (ticks)
system.iobus.reqLayer9.utilization                0.0                       # Layer utilization (%)
system.iobus.reqLayer10.occupancy              203000                       # Layer occupancy (ticks)
system.iobus.reqLayer10.utilization               0.0                       # Layer utilization (%)
system.iobus.reqLayer12.occupancy                2500                       # Layer occupancy (ticks)
system.iobus.reqLayer12.utilization               0.0                       # Layer utilization (%)
system.iobus.reqLayer13.occupancy            25721500                       # Layer occupancy (ticks)
system.iobus.reqLayer13.utilization               0.0                       # Layer utilization (%)
system.iobus.reqLayer14.occupancy                9000                       # Layer occupancy (ticks)
system.iobus.reqLayer14.utilization               0.0                       # Layer utilization (%)
system.iobus.reqLayer15.occupancy                9000                       # Layer occupancy (ticks)
system.iobus.reqLayer15.utilization               0.0                       # Layer utilization (%)
system.iobus.reqLayer16.occupancy               12000                       # Layer occupancy (ticks)
system.iobus.reqLayer16.utilization               0.0                       # Layer utilization (%)
system.iobus.reqLayer17.occupancy               11000                       # Layer occupancy (ticks)
system.iobus.reqLayer17.utilization               0.0                       # Layer utilization (%)
system.iobus.reqLayer18.occupancy           465340224                       # Layer occupancy (ticks)
system.iobus.reqLayer18.utilization               0.0                       # Layer utilization (%)
system.iobus.reqLayer20.occupancy             1328000                       # Layer occupancy (ticks)
system.iobus.reqLayer20.utilization               0.0                       # Layer utilization (%)
system.iobus.respLayer0.occupancy             2339724                       # Layer occupancy (ticks)
system.iobus.respLayer0.utilization               0.0                       # Layer utilization (%)
system.iobus.respLayer2.occupancy          1793906500                       # Layer occupancy (ticks)
system.iobus.respLayer2.utilization               0.0                       # Layer utilization (%)
system.pc.south_bridge.ide.disks0.dma_read_full_pages            9                       # Number of full page size DMA reads (not PRD).
system.pc.south_bridge.ide.disks0.dma_read_bytes        36864                       # Number of bytes transfered via DMA reads (not PRD).
system.pc.south_bridge.ide.disks0.dma_read_txs            9                       # Number of DMA read transactions (not PRD).
system.pc.south_bridge.ide.disks0.dma_write_full_pages          672                       # Number of full page size DMA writes.
system.pc.south_bridge.ide.disks0.dma_write_bytes      2755584                       # Number of bytes transfered via DMA writes.
system.pc.south_bridge.ide.disks0.dma_write_txs          676                       # Number of DMA write transactions.
system.pc.south_bridge.ide.disks1.dma_read_full_pages            0                       # Number of full page size DMA reads (not PRD).
system.pc.south_bridge.ide.disks1.dma_read_bytes            0                       # Number of bytes transfered via DMA reads (not PRD).
system.pc.south_bridge.ide.disks1.dma_read_txs            0                       # Number of DMA read transactions (not PRD).
system.pc.south_bridge.ide.disks1.dma_write_full_pages            1                       # Number of full page size DMA writes.
system.pc.south_bridge.ide.disks1.dma_write_bytes         4096                       # Number of bytes transfered via DMA writes.
system.pc.south_bridge.ide.disks1.dma_write_txs            1                       # Number of DMA write transactions.
system.ruby.clk_domain.clock                      500                       # Clock period in ticks
system.ruby.delayHist::bucket_size                  2                       # delay histogram for all message
system.ruby.delayHist::max_bucket                  19                       # delay histogram for all message
system.ruby.delayHist::samples               10927319                       # delay histogram for all message
system.ruby.delayHist::mean                  0.552178                       # delay histogram for all message
system.ruby.delayHist::stdev                 2.027950                       # delay histogram for all message
system.ruby.delayHist                    |    10173050     93.10%     93.10% |          56      0.00%     93.10% |          23      0.00%     93.10% |          25      0.00%     93.10% |      754115      6.90%    100.00% |          43      0.00%    100.00% |           0      0.00%    100.00% |           0      0.00%    100.00% |           3      0.00%    100.00% |           4      0.00%    100.00% # delay histogram for all message
system.ruby.delayHist::total                 10927319                       # delay histogram for all message
system.ruby.outstanding_req_hist::bucket_size            1                      
system.ruby.outstanding_req_hist::max_bucket            9                      
system.ruby.outstanding_req_hist::samples    144089047                      
system.ruby.outstanding_req_hist::mean       1.000109                      
system.ruby.outstanding_req_hist::gmean      1.000076                      
system.ruby.outstanding_req_hist::stdev      0.010458                      
system.ruby.outstanding_req_hist         |           0      0.00%      0.00% |   144073286     99.99%     99.99% |       15761      0.01%    100.00% |           0      0.00%    100.00% |           0      0.00%    100.00% |           0      0.00%    100.00% |           0      0.00%    100.00% |           0      0.00%    100.00% |           0      0.00%    100.00% |           0      0.00%    100.00%
system.ruby.outstanding_req_hist::total     144089047                      
system.ruby.latency_hist::bucket_size             256                      
system.ruby.latency_hist::max_bucket             2559                      
system.ruby.latency_hist::samples           144089046                      
system.ruby.latency_hist::mean               3.769469                      
system.ruby.latency_hist::gmean              3.118852                      
system.ruby.latency_hist::stdev             10.963546                      
system.ruby.latency_hist                 |   144050822     99.97%     99.97% |       25493      0.02%     99.99% |       11645      0.01%    100.00% |         702      0.00%    100.00% |         340      0.00%    100.00% |          42      0.00%    100.00% |           2      0.00%    100.00% |           0      0.00%    100.00% |           0      0.00%    100.00% |           0      0.00%    100.00%
system.ruby.latency_hist::total             144089046                      
system.ruby.hit_latency_hist::bucket_size            1                      
system.ruby.hit_latency_hist::max_bucket            9                      
system.ruby.hit_latency_hist::samples       141669874                      
system.ruby.hit_latency_hist::mean                  3                      
system.ruby.hit_latency_hist::gmean          3.000000                      
system.ruby.hit_latency_hist             |           0      0.00%      0.00% |           0      0.00%      0.00% |           0      0.00%      0.00% |   141669874    100.00%    100.00% |           0      0.00%    100.00% |           0      0.00%    100.00% |           0      0.00%    100.00% |           0      0.00%    100.00% |           0      0.00%    100.00% |           0      0.00%    100.00%
system.ruby.hit_latency_hist::total         141669874                      
system.ruby.miss_latency_hist::bucket_size          256                      
system.ruby.miss_latency_hist::max_bucket         2559                      
system.ruby.miss_latency_hist::samples        2419172                      
system.ruby.miss_latency_hist::mean         48.830555                      
system.ruby.miss_latency_hist::gmean        30.347713                      
system.ruby.miss_latency_hist::stdev        71.372668                      
system.ruby.miss_latency_hist            |     2380948     98.42%     98.42% |       25493      1.05%     99.47% |       11645      0.48%     99.96% |         702      0.03%     99.98% |         340      0.01%    100.00% |          42      0.00%    100.00% |           2      0.00%    100.00% |           0      0.00%    100.00% |           0      0.00%    100.00% |           0      0.00%    100.00%
system.ruby.miss_latency_hist::total          2419172                      
system.ruby.l1_cntrl0.L1Dcache.demand_hits     23068641                       # Number of cache demand hits
system.ruby.l1_cntrl0.L1Dcache.demand_misses      1678810                       # Number of cache demand misses
system.ruby.l1_cntrl0.L1Dcache.demand_accesses     24747451                       # Number of cache demand accesses
system.ruby.l1_cntrl0.L1Icache.demand_hits    118601233                       # Number of cache demand hits
system.ruby.l1_cntrl0.L1Icache.demand_misses       740362                       # Number of cache demand misses
system.ruby.l1_cntrl0.L1Icache.demand_accesses    119341595                       # Number of cache demand accesses
system.ruby.l1_cntrl0.prefetcher.miss_observed            0                       # number of misses observed
system.ruby.l1_cntrl0.prefetcher.allocated_streams            0                       # number of streams allocated for prefetching
system.ruby.l1_cntrl0.prefetcher.prefetches_requested            0                       # number of prefetch requests made
system.ruby.l1_cntrl0.prefetcher.prefetches_accepted            0                       # number of prefetch requests accepted
system.ruby.l1_cntrl0.prefetcher.dropped_prefetches            0                       # number of prefetch requests dropped
system.ruby.l1_cntrl0.prefetcher.hits               0                       # number of prefetched blocks accessed
system.ruby.l1_cntrl0.prefetcher.partial_hits            0                       # number of misses observed for a block being prefetched
system.ruby.l1_cntrl0.prefetcher.pages_crossed            0                       # number of prefetches across pages
system.ruby.l1_cntrl0.prefetcher.misses_on_prefetched_blocks            0                       # number of misses for blocks that were prefetched, yet missed
system.ruby.l1_cntrl0.fully_busy_cycles            10                       # cycles for which number of transistions == max transitions
system.ruby.l2_cntrl0.L2cache.demand_hits      1864021                       # Number of cache demand hits
system.ruby.l2_cntrl0.L2cache.demand_misses       555151                       # Number of cache demand misses
system.ruby.l2_cntrl0.L2cache.demand_accesses      2419172                       # Number of cache demand accesses
system.ruby.memctrl_clk_domain.clock             1500                       # Clock period in ticks
system.ruby.network.routers0.percent_links_utilized     0.082628                      
system.ruby.network.routers0.msg_count.Control::0      2419172                      
system.ruby.network.routers0.msg_count.Request_Control::2         3709                      
system.ruby.network.routers0.msg_count.Response_Data::1      2419172                      
system.ruby.network.routers0.msg_count.Response_Control::1      1680850                      
system.ruby.network.routers0.msg_count.Response_Control::2      1678805                      
system.ruby.network.routers0.msg_count.Writeback_Data::0       754116                      
system.ruby.network.routers0.msg_count.Writeback_Data::1          313                      
system.ruby.network.routers0.msg_count.Writeback_Control::0       923338                      
system.ruby.network.routers0.msg_bytes.Control::0     19353376                      
system.ruby.network.routers0.msg_bytes.Request_Control::2        29672                      
system.ruby.network.routers0.msg_bytes.Response_Data::1    174180384                      
system.ruby.network.routers0.msg_bytes.Response_Control::1     13446800                      
system.ruby.network.routers0.msg_bytes.Response_Control::2     13430440                      
system.ruby.network.routers0.msg_bytes.Writeback_Data::0     54296352                      
system.ruby.network.routers0.msg_bytes.Writeback_Data::1        22536                      
system.ruby.network.routers0.msg_bytes.Writeback_Control::0      7386704                      
system.ruby.network.routers1.percent_links_utilized     0.106821                      
system.ruby.network.routers1.msg_count.Control::0      2974323                      
system.ruby.network.routers1.msg_count.Request_Control::2         3709                      
system.ruby.network.routers1.msg_count.Response_Data::1      3448286                      
system.ruby.network.routers1.msg_count.Response_Control::1      2190057                      
system.ruby.network.routers1.msg_count.Response_Control::2      1678805                      
system.ruby.network.routers1.msg_count.Writeback_Data::0       754116                      
system.ruby.network.routers1.msg_count.Writeback_Data::1          313                      
system.ruby.network.routers1.msg_count.Writeback_Control::0       923338                      
system.ruby.network.routers1.msg_bytes.Control::0     23794584                      
system.ruby.network.routers1.msg_bytes.Request_Control::2        29672                      
system.ruby.network.routers1.msg_bytes.Response_Data::1    248276592                      
system.ruby.network.routers1.msg_bytes.Response_Control::1     17520456                      
system.ruby.network.routers1.msg_bytes.Response_Control::2     13430440                      
system.ruby.network.routers1.msg_bytes.Writeback_Data::0     54296352                      
system.ruby.network.routers1.msg_bytes.Writeback_Data::1        22536                      
system.ruby.network.routers1.msg_bytes.Writeback_Control::0      7386704                      
system.ruby.network.routers2.percent_links_utilized     0.024413                      
system.ruby.network.routers2.msg_count.Control::0       555151                      
system.ruby.network.routers2.msg_count.Response_Data::1      1029867                      
system.ruby.network.routers2.msg_count.Response_Control::1       509207                      
system.ruby.network.routers2.msg_count.Writeback_Control::0        43873                      
system.ruby.network.routers2.msg_count.Writeback_Control::1        43120                      
system.ruby.network.routers2.msg_bytes.Control::0      4441208                      
system.ruby.network.routers2.msg_bytes.Response_Data::1     74150424                      
system.ruby.network.routers2.msg_bytes.Response_Control::1      4073656                      
system.ruby.network.routers2.msg_bytes.Writeback_Control::0       350984                      
system.ruby.network.routers2.msg_bytes.Writeback_Control::1       344960                      
system.ruby.network.routers3.percent_links_utilized     0.000220                      
system.ruby.network.routers3.msg_count.Response_Data::1          753                      
system.ruby.network.routers3.msg_count.Writeback_Control::0        43873                      
system.ruby.network.routers3.msg_count.Writeback_Control::1        43120                      
system.ruby.network.routers3.msg_bytes.Response_Data::1        54216                      
system.ruby.network.routers3.msg_bytes.Writeback_Control::0       350984                      
system.ruby.network.routers3.msg_bytes.Writeback_Control::1       344960                      
system.ruby.network.routers4.percent_links_utilized            0                      
system.ruby.network.routers5.percent_links_utilized     0.042816                      
system.ruby.network.routers5.msg_count.Control::0      2974323                      
system.ruby.network.routers5.msg_count.Request_Control::2         3709                      
system.ruby.network.routers5.msg_count.Response_Data::1      3449039                      
system.ruby.network.routers5.msg_count.Response_Control::1      2190057                      
system.ruby.network.routers5.msg_count.Response_Control::2      1678805                      
system.ruby.network.routers5.msg_count.Writeback_Data::0       754116                      
system.ruby.network.routers5.msg_count.Writeback_Data::1          313                      
system.ruby.network.routers5.msg_count.Writeback_Control::0       967211                      
system.ruby.network.routers5.msg_count.Writeback_Control::1        43120                      
system.ruby.network.routers5.msg_bytes.Control::0     23794584                      
system.ruby.network.routers5.msg_bytes.Request_Control::2        29672                      
system.ruby.network.routers5.msg_bytes.Response_Data::1    248330808                      
system.ruby.network.routers5.msg_bytes.Response_Control::1     17520456                      
system.ruby.network.routers5.msg_bytes.Response_Control::2     13430440                      
system.ruby.network.routers5.msg_bytes.Writeback_Data::0     54296352                      
system.ruby.network.routers5.msg_bytes.Writeback_Data::1        22536                      
system.ruby.network.routers5.msg_bytes.Writeback_Control::0      7737688                      
system.ruby.network.routers5.msg_bytes.Writeback_Control::1       344960                      
system.ruby.network.msg_count.Control         8922969                      
system.ruby.network.msg_count.Request_Control        11127                      
system.ruby.network.msg_count.Response_Data     10347117                      
system.ruby.network.msg_count.Response_Control     11606586                      
system.ruby.network.msg_count.Writeback_Data      2263287                      
system.ruby.network.msg_count.Writeback_Control      3030993                      
system.ruby.network.msg_byte.Control         71383752                      
system.ruby.network.msg_byte.Request_Control        89016                      
system.ruby.network.msg_byte.Response_Data    744992424                      
system.ruby.network.msg_byte.Response_Control     92852688                      
system.ruby.network.msg_byte.Writeback_Data    162956664                      
system.ruby.network.msg_byte.Writeback_Control     24247944                      
system.ruby.network.routers0.throttle0.link_utilization     0.109897                      
system.ruby.network.routers0.throttle0.msg_count.Request_Control::2         3709                      
system.ruby.network.routers0.throttle0.msg_count.Response_Data::1      2419172                      
system.ruby.network.routers0.throttle0.msg_count.Response_Control::1      1677454                      
system.ruby.network.routers0.throttle0.msg_bytes.Request_Control::2        29672                      
system.ruby.network.routers0.throttle0.msg_bytes.Response_Data::1    174180384                      
system.ruby.network.routers0.throttle0.msg_bytes.Response_Control::1     13419632                      
system.ruby.network.routers0.throttle1.link_utilization     0.055359                      
system.ruby.network.routers0.throttle1.msg_count.Control::0      2419172                      
system.ruby.network.routers0.throttle1.msg_count.Response_Control::1         3396                      
system.ruby.network.routers0.throttle1.msg_count.Response_Control::2      1678805                      
system.ruby.network.routers0.throttle1.msg_count.Writeback_Data::0       754116                      
system.ruby.network.routers0.throttle1.msg_count.Writeback_Data::1          313                      
system.ruby.network.routers0.throttle1.msg_count.Writeback_Control::0       923338                      
system.ruby.network.routers0.throttle1.msg_bytes.Control::0     19353376                      
system.ruby.network.routers0.throttle1.msg_bytes.Response_Control::1        27168                      
system.ruby.network.routers0.throttle1.msg_bytes.Response_Control::2     13430440                      
system.ruby.network.routers0.throttle1.msg_bytes.Writeback_Data::0     54296352                      
system.ruby.network.routers0.throttle1.msg_bytes.Writeback_Data::1        22536                      
system.ruby.network.routers0.throttle1.msg_bytes.Writeback_Control::0      7386704                      
system.ruby.network.routers1.throttle0.link_utilization     0.081079                      
system.ruby.network.routers1.throttle0.msg_count.Control::0      2419172                      
system.ruby.network.routers1.throttle0.msg_count.Response_Data::1       555151                      
system.ruby.network.routers1.throttle0.msg_count.Response_Control::1       496089                      
system.ruby.network.routers1.throttle0.msg_count.Response_Control::2      1678805                      
system.ruby.network.routers1.throttle0.msg_count.Writeback_Data::0       754116                      
system.ruby.network.routers1.throttle0.msg_count.Writeback_Data::1          313                      
system.ruby.network.routers1.throttle0.msg_count.Writeback_Control::0       923338                      
system.ruby.network.routers1.throttle0.msg_bytes.Control::0     19353376                      
system.ruby.network.routers1.throttle0.msg_bytes.Response_Data::1     39970872                      
system.ruby.network.routers1.throttle0.msg_bytes.Response_Control::1      3968712                      
system.ruby.network.routers1.throttle0.msg_bytes.Response_Control::2     13430440                      
system.ruby.network.routers1.throttle0.msg_bytes.Writeback_Data::0     54296352                      
system.ruby.network.routers1.throttle0.msg_bytes.Writeback_Data::1        22536                      
system.ruby.network.routers1.throttle0.msg_bytes.Writeback_Control::0      7386704                      
system.ruby.network.routers1.throttle1.link_utilization     0.132563                      
system.ruby.network.routers1.throttle1.msg_count.Control::0       555151                      
system.ruby.network.routers1.throttle1.msg_count.Request_Control::2         3709                      
system.ruby.network.routers1.throttle1.msg_count.Response_Data::1      2893135                      
system.ruby.network.routers1.throttle1.msg_count.Response_Control::1      1693968                      
system.ruby.network.routers1.throttle1.msg_bytes.Control::0      4441208                      
system.ruby.network.routers1.throttle1.msg_bytes.Request_Control::2        29672                      
system.ruby.network.routers1.throttle1.msg_bytes.Response_Data::1    208305720                      
system.ruby.network.routers1.throttle1.msg_bytes.Response_Control::1     13551744                      
system.ruby.network.routers2.throttle0.link_utilization     0.022872                      
system.ruby.network.routers2.throttle0.msg_count.Control::0       555151                      
system.ruby.network.routers2.throttle0.msg_count.Response_Data::1       473963                      
system.ruby.network.routers2.throttle0.msg_count.Response_Control::1        16514                      
system.ruby.network.routers2.throttle0.msg_count.Writeback_Control::0        43873                      
system.ruby.network.routers2.throttle0.msg_bytes.Control::0      4441208                      
system.ruby.network.routers2.throttle0.msg_bytes.Response_Data::1     34125336                      
system.ruby.network.routers2.throttle0.msg_bytes.Response_Control::1       132112                      
system.ruby.network.routers2.throttle0.msg_bytes.Writeback_Control::0       350984                      
system.ruby.network.routers2.throttle1.link_utilization     0.025954                      
system.ruby.network.routers2.throttle1.msg_count.Response_Data::1       555904                      
system.ruby.network.routers2.throttle1.msg_count.Response_Control::1       492693                      
system.ruby.network.routers2.throttle1.msg_count.Writeback_Control::1        43120                      
system.ruby.network.routers2.throttle1.msg_bytes.Response_Data::1     40025088                      
system.ruby.network.routers2.throttle1.msg_bytes.Response_Control::1      3941544                      
system.ruby.network.routers2.throttle1.msg_bytes.Writeback_Control::1       344960                      
system.ruby.network.routers3.throttle0.link_utilization     0.000234                      
system.ruby.network.routers3.throttle0.msg_count.Response_Data::1          753                      
system.ruby.network.routers3.throttle0.msg_count.Writeback_Control::1        43120                      
system.ruby.network.routers3.throttle0.msg_bytes.Response_Data::1        54216                      
system.ruby.network.routers3.throttle0.msg_bytes.Writeback_Control::1       344960                      
system.ruby.network.routers3.throttle1.link_utilization     0.000206                      
system.ruby.network.routers3.throttle1.msg_count.Writeback_Control::0        43873                      
system.ruby.network.routers3.throttle1.msg_bytes.Writeback_Control::0       350984                      
system.ruby.network.routers4.throttle0.link_utilization            0                      
system.ruby.network.routers4.throttle1.link_utilization            0                      
system.ruby.network.routers5.throttle0.link_utilization     0.109897                      
system.ruby.network.routers5.throttle0.msg_count.Request_Control::2         3709                      
system.ruby.network.routers5.throttle0.msg_count.Response_Data::1      2419172                      
system.ruby.network.routers5.throttle0.msg_count.Response_Control::1      1677454                      
system.ruby.network.routers5.throttle0.msg_bytes.Request_Control::2        29672                      
[...]
system.ruby.LD.latency_hist::total             167510                      
system.ruby.LD.hit_latency_hist::bucket_size            1                      
system.ruby.LD.hit_latency_hist::max_bucket            9                      
system.ruby.LD.hit_latency_hist::samples       164530                      
system.ruby.LD.hit_latency_hist::mean               3                      
system.ruby.LD.hit_latency_hist::gmean       3.000000                      
system.ruby.LD.hit_latency_hist          |           0      0.00%      0.00% |           0      0.00%      0.00% |           0      0.00%      0.00% |      164530    100.00%    100.00% |           0      0.00%    100.00% |           0      0.00%    100.00% |           0      0.00%    100.00% |           0      0.00%    100.00% |           0      0.00%    100.00% |           0      0.00%    100.00%
system.ruby.LD.hit_latency_hist::total         164530                      
system.ruby.LD.miss_latency_hist::bucket_size           64                      
system.ruby.LD.miss_latency_hist::max_bucket          639                      
system.ruby.LD.miss_latency_hist::samples         2980                      
system.ruby.LD.miss_latency_hist::mean      22.489262                      
system.ruby.LD.miss_latency_hist::gmean     21.646128                      
system.ruby.LD.miss_latency_hist::stdev     13.736657                      
system.ruby.LD.miss_latency_hist         |        2955     99.16%     99.16% |          10      0.34%     99.50% |          14      0.47%     99.97% |           0      0.00%     99.97% |           0      0.00%     99.97% |           0      0.00%     99.97% |           0      0.00%     99.97% |           1      0.03%    100.00% |           0      0.00%    100.00% |           0      0.00%    100.00%
system.ruby.LD.miss_latency_hist::total          2980                      
system.ruby.ST.latency_hist::bucket_size          128                      
system.ruby.ST.latency_hist::max_bucket          1279                      
system.ruby.ST.latency_hist::samples           117157                      
system.ruby.ST.latency_hist::mean            3.759758                      
system.ruby.ST.latency_hist::gmean           3.183733                      
system.ruby.ST.latency_hist::stdev           8.007276                      
system.ruby.ST.latency_hist              |      117130     99.98%     99.98% |          14      0.01%     99.99% |           1      0.00%     99.99% |           4      0.00%     99.99% |           7      0.01%    100.00% |           1      0.00%    100.00% |           0      0.00%    100.00% |           0      0.00%    100.00% |           0      0.00%    100.00% |           0      0.00%    100.00%
system.ruby.ST.latency_hist::total             117157                      
system.ruby.ST.hit_latency_hist::bucket_size            1                      
system.ruby.ST.hit_latency_hist::max_bucket            9                      
system.ruby.ST.hit_latency_hist::samples       113829                      
system.ruby.ST.hit_latency_hist::mean               3                      
system.ruby.ST.hit_latency_hist::gmean       3.000000                      
system.ruby.ST.hit_latency_hist          |           0      0.00%      0.00% |           0      0.00%      0.00% |           0      0.00%      0.00% |      113829    100.00%    100.00% |           0      0.00%    100.00% |           0      0.00%    100.00% |           0      0.00%    100.00% |           0      0.00%    100.00% |           0      0.00%    100.00% |           0      0.00%    100.00%
system.ruby.ST.hit_latency_hist::total         113829                      
system.ruby.ST.miss_latency_hist::bucket_size          128                      
system.ruby.ST.miss_latency_hist::max_bucket         1279                      
system.ruby.ST.miss_latency_hist::samples         3328                      
system.ruby.ST.miss_latency_hist::mean      29.746094                      
system.ruby.ST.miss_latency_hist::gmean     24.317166                      
system.ruby.ST.miss_latency_hist::stdev     39.528931                      
system.ruby.ST.miss_latency_hist         |        3301     99.19%     99.19% |          14      0.42%     99.61% |           1      0.03%     99.64% |           4      0.12%     99.76% |           7      0.21%     99.97% |           1      0.03%    100.00% |           0      0.00%    100.00% |           0      0.00%    100.00% |           0      0.00%    100.00% |           0      0.00%    100.00%
system.ruby.ST.miss_latency_hist::total          3328                      
system.ruby.IFETCH.latency_hist::bucket_size           64                      
system.ruby.IFETCH.latency_hist::max_bucket          639                      
system.ruby.IFETCH.latency_hist::samples       819981                      
system.ruby.IFETCH.latency_hist::mean        3.166364                      
system.ruby.IFETCH.latency_hist::gmean       3.048044                      
system.ruby.IFETCH.latency_hist::stdev       3.219261                      
system.ruby.IFETCH.latency_hist          |      819788     99.98%     99.98% |         121      0.01%     99.99% |          55      0.01%    100.00% |           0      0.00%    100.00% |           1      0.00%    100.00% |           1      0.00%    100.00% |           5      0.00%    100.00% |           4      0.00%    100.00% |           2      0.00%    100.00% |           4      0.00%    100.00%
system.ruby.IFETCH.latency_hist::total         819981                      
system.ruby.IFETCH.hit_latency_hist::bucket_size            1                      
system.ruby.IFETCH.hit_latency_hist::max_bucket            9                      
system.ruby.IFETCH.hit_latency_hist::samples       813133                      
system.ruby.IFETCH.hit_latency_hist::mean            3                      
system.ruby.IFETCH.hit_latency_hist::gmean     3.000000                      
system.ruby.IFETCH.hit_latency_hist      |           0      0.00%      0.00% |           0      0.00%      0.00% |           0      0.00%      0.00% |      813133    100.00%    100.00% |           0      0.00%    100.00% |           0      0.00%    100.00% |           0      0.00%    100.00% |           0      0.00%    100.00% |           0      0.00%    100.00% |           0      0.00%    100.00%
system.ruby.IFETCH.hit_latency_hist::total       813133                      
system.ruby.IFETCH.miss_latency_hist::bucket_size           64                      
system.ruby.IFETCH.miss_latency_hist::max_bucket          639                      
system.ruby.IFETCH.miss_latency_hist::samples         6848                      
system.ruby.IFETCH.miss_latency_hist::mean    22.920415                      
system.ruby.IFETCH.miss_latency_hist::gmean    20.105942                      
system.ruby.IFETCH.miss_latency_hist::stdev    29.112844                      
system.ruby.IFETCH.miss_latency_hist     |        6655     97.18%     97.18% |         121      1.77%     98.95% |          55      0.80%     99.75% |           0      0.00%     99.75% |           1      0.01%     99.77% |           1      0.01%     99.78% |           5      0.07%     99.85% |           4      0.06%     99.91% |           2      0.03%     99.94% |           4      0.06%    100.00%
system.ruby.IFETCH.miss_latency_hist::total         6848                      
system.ruby.RMW_Read.latency_hist::bucket_size           16                      
system.ruby.RMW_Read.latency_hist::max_bucket          159                      
system.ruby.RMW_Read.latency_hist::samples        10432                      
system.ruby.RMW_Read.latency_hist::mean      3.356308                      
system.ruby.RMW_Read.latency_hist::gmean     3.113606                      
system.ruby.RMW_Read.latency_hist::stdev     2.842030                      
system.ruby.RMW_Read.latency_hist        |       10234     98.10%     98.10% |         197      1.89%     99.99% |           0      0.00%     99.99% |           0      0.00%     99.99% |           0      0.00%     99.99% |           0      0.00%     99.99% |           0      0.00%     99.99% |           0      0.00%     99.99% |           0      0.00%     99.99% |           1      0.01%    100.00%
system.ruby.RMW_Read.latency_hist::total        10432                      
system.ruby.RMW_Read.hit_latency_hist::bucket_size            1                      
system.ruby.RMW_Read.hit_latency_hist::max_bucket            9                      
system.ruby.RMW_Read.hit_latency_hist::samples        10234                      
system.ruby.RMW_Read.hit_latency_hist::mean            3                      
system.ruby.RMW_Read.hit_latency_hist::gmean     3.000000                      
system.ruby.RMW_Read.hit_latency_hist    |           0      0.00%      0.00% |           0      0.00%      0.00% |           0      0.00%      0.00% |       10234    100.00%    100.00% |           0      0.00%    100.00% |           0      0.00%    100.00% |           0      0.00%    100.00% |           0      0.00%    100.00% |           0      0.00%    100.00% |           0      0.00%    100.00%
system.ruby.RMW_Read.hit_latency_hist::total        10234                      
system.ruby.RMW_Read.miss_latency_hist::bucket_size           16                      
system.ruby.RMW_Read.miss_latency_hist::max_bucket          159                      
system.ruby.RMW_Read.miss_latency_hist::samples          198                      
system.ruby.RMW_Read.miss_latency_hist::mean    21.772727                      
system.ruby.RMW_Read.miss_latency_hist::gmean    21.262612                      
system.ruby.RMW_Read.miss_latency_hist::stdev     8.955267                      
system.ruby.RMW_Read.miss_latency_hist   |           0      0.00%      0.00% |         197     99.49%     99.49% |           0      0.00%     99.49% |           0      0.00%     99.49% |           0      0.00%     99.49% |           0      0.00%     99.49% |           0      0.00%     99.49% |           0      0.00%     99.49% |           0      0.00%     99.49% |           1      0.51%    100.00%
system.ruby.RMW_Read.miss_latency_hist::total          198                      
system.ruby.Locked_RMW_Read.latency_hist::bucket_size            2                      
system.ruby.Locked_RMW_Read.latency_hist::max_bucket           19                      
system.ruby.Locked_RMW_Read.latency_hist::samples          241                      
system.ruby.Locked_RMW_Read.latency_hist::mean     3.066390                      
system.ruby.Locked_RMW_Read.latency_hist::gmean     3.023065                      
system.ruby.Locked_RMW_Read.latency_hist::stdev     1.030651                      
system.ruby.Locked_RMW_Read.latency_hist |           0      0.00%      0.00% |         240     99.59%     99.59% |           0      0.00%     99.59% |           0      0.00%     99.59% |           0      0.00%     99.59% |           0      0.00%     99.59% |           0      0.00%     99.59% |           0      0.00%     99.59% |           0      0.00%     99.59% |           1      0.41%    100.00%
system.ruby.Locked_RMW_Read.latency_hist::total          241                      
system.ruby.Locked_RMW_Read.hit_latency_hist::bucket_size            1                      
system.ruby.Locked_RMW_Read.hit_latency_hist::max_bucket            9                      
system.ruby.Locked_RMW_Read.hit_latency_hist::samples          240                      
system.ruby.Locked_RMW_Read.hit_latency_hist::mean            3                      
system.ruby.Locked_RMW_Read.hit_latency_hist::gmean     3.000000                      
system.ruby.Locked_RMW_Read.hit_latency_hist |           0      0.00%      0.00% |           0      0.00%      0.00% |           0      0.00%      0.00% |         240    100.00%    100.00% |           0      0.00%    100.00% |           0      0.00%    100.00% |           0      0.00%    100.00% |           0      0.00%    100.00% |           0      0.00%    100.00% |           0      0.00%    100.00%
system.ruby.Locked_RMW_Read.hit_latency_hist::total          240                      
system.ruby.Locked_RMW_Read.miss_latency_hist::bucket_size            2                      
system.ruby.Locked_RMW_Read.miss_latency_hist::max_bucket           19                      
system.ruby.Locked_RMW_Read.miss_latency_hist::samples            1                      
system.ruby.Locked_RMW_Read.miss_latency_hist::mean           19                      
system.ruby.Locked_RMW_Read.miss_latency_hist::gmean    19.000000                      
system.ruby.Locked_RMW_Read.miss_latency_hist::stdev          nan                      
system.ruby.Locked_RMW_Read.miss_latency_hist |           0      0.00%      0.00% |           0      0.00%      0.00% |           0      0.00%      0.00% |           0      0.00%      0.00% |           0      0.00%      0.00% |           0      0.00%      0.00% |           0      0.00%      0.00% |           0      0.00%      0.00% |           0      0.00%      0.00% |           1    100.00%    100.00%
system.ruby.Locked_RMW_Read.miss_latency_hist::total            1                      
system.ruby.Locked_RMW_Write.latency_hist::bucket_size            1                      
system.ruby.Locked_RMW_Write.latency_hist::max_bucket            9                      
system.ruby.Locked_RMW_Write.latency_hist::samples          241                      
system.ruby.Locked_RMW_Write.latency_hist::mean            3                      
system.ruby.Locked_RMW_Write.latency_hist::gmean     3.000000                      
system.ruby.Locked_RMW_Write.latency_hist |           0      0.00%      0.00% |           0      0.00%      0.00% |           0      0.00%      0.00% |         241    100.00%    100.00% |           0      0.00%    100.00% |           0      0.00%    100.00% |           0      0.00%    100.00% |           0      0.00%    100.00% |           0      0.00%    100.00% |           0      0.00%    100.00%
system.ruby.Locked_RMW_Write.latency_hist::total          241                      
system.ruby.Locked_RMW_Write.hit_latency_hist::bucket_size            1                      
system.ruby.Locked_RMW_Write.hit_latency_hist::max_bucket            9                      
system.ruby.Locked_RMW_Write.hit_latency_hist::samples          241                      
system.ruby.Locked_RMW_Write.hit_latency_hist::mean            3                      
system.ruby.Locked_RMW_Write.hit_latency_hist::gmean     3.000000                      
system.ruby.Locked_RMW_Write.hit_latency_hist |           0      0.00%      0.00% |           0      0.00%      0.00% |           0      0.00%      0.00% |         241    100.00%    100.00% |           0      0.00%    100.00% |           0      0.00%    100.00% |           0      0.00%    100.00% |           0      0.00%    100.00% |           0      0.00%    100.00% |           0      0.00%    100.00%
system.ruby.Locked_RMW_Write.hit_latency_hist::total          241                      
system.ruby.Directory_Controller.Fetch            439      0.00%      0.00%
system.ruby.Directory_Controller.Data             347      0.00%      0.00%
system.ruby.Directory_Controller.Memory_Data          439      0.00%      0.00%
system.ruby.Directory_Controller.Memory_Ack          347      0.00%      0.00%
system.ruby.Directory_Controller.CleanReplacement            7      0.00%      0.00%
system.ruby.Directory_Controller.I.Fetch          439      0.00%      0.00%
system.ruby.Directory_Controller.M.Data           347      0.00%      0.00%
system.ruby.Directory_Controller.M.CleanReplacement            7      0.00%      0.00%
system.ruby.Directory_Controller.IM.Memory_Data          439      0.00%      0.00%
system.ruby.Directory_Controller.MI.Memory_Ack          347      0.00%      0.00%
system.ruby.L1Cache_Controller.Load            167510      0.00%      0.00%
system.ruby.L1Cache_Controller.Ifetch          819981      0.00%      0.00%
system.ruby.L1Cache_Controller.Store           128071      0.00%      0.00%
system.ruby.L1Cache_Controller.Inv                  3      0.00%      0.00%
system.ruby.L1Cache_Controller.L1_Replacement        13355      0.00%      0.00%
system.ruby.L1Cache_Controller.Data_Exclusive         2980      0.00%      0.00%
system.ruby.L1Cache_Controller.Data_all_Acks        10375      0.00%      0.00%
system.ruby.L1Cache_Controller.WB_Ack            6507      0.00%      0.00%
system.ruby.L1Cache_Controller.NP.Load           2980      0.00%      0.00%
system.ruby.L1Cache_Controller.NP.Ifetch         6848      0.00%      0.00%
system.ruby.L1Cache_Controller.NP.Store          3527      0.00%      0.00%
system.ruby.L1Cache_Controller.NP.Inv               3      0.00%      0.00%
system.ruby.L1Cache_Controller.S.Ifetch        813133      0.00%      0.00%
system.ruby.L1Cache_Controller.S.L1_Replacement         6848      0.00%      0.00%
system.ruby.L1Cache_Controller.E.Load           31653      0.00%      0.00%
system.ruby.L1Cache_Controller.E.Store            841      0.00%      0.00%
system.ruby.L1Cache_Controller.E.L1_Replacement         2391      0.00%      0.00%
system.ruby.L1Cache_Controller.M.Load          132877      0.00%      0.00%
system.ruby.L1Cache_Controller.M.Store         123703      0.00%      0.00%
system.ruby.L1Cache_Controller.M.L1_Replacement         4116      0.00%      0.00%
system.ruby.L1Cache_Controller.IS.Data_Exclusive         2980      0.00%      0.00%
system.ruby.L1Cache_Controller.IS.Data_all_Acks         6848      0.00%      0.00%
system.ruby.L1Cache_Controller.IM.Data_all_Acks         3527      0.00%      0.00%
system.ruby.L1Cache_Controller.M_I.WB_Ack         6507      0.00%      0.00%
system.ruby.L2Cache_Controller.L1_GET_INSTR         6848      0.00%      0.00%
system.ruby.L2Cache_Controller.L1_GETS           2980      0.00%      0.00%
system.ruby.L2Cache_Controller.L1_GETX           3527      0.00%      0.00%
system.ruby.L2Cache_Controller.L1_PUTX           6507      0.00%      0.00%
system.ruby.L2Cache_Controller.L2_Replacement          347      0.00%      0.00%
system.ruby.L2Cache_Controller.L2_Replacement_clean            7      0.00%      0.00%
system.ruby.L2Cache_Controller.Mem_Data           439      0.00%      0.00%
system.ruby.L2Cache_Controller.Mem_Ack            354      0.00%      0.00%
system.ruby.L2Cache_Controller.Ack_all              3      0.00%      0.00%
system.ruby.L2Cache_Controller.Exclusive_Unblock         6507      0.00%      0.00%
system.ruby.L2Cache_Controller.NP.L1_GET_INSTR          193      0.00%      0.00%
system.ruby.L2Cache_Controller.NP.L1_GETS           25      0.00%      0.00%
system.ruby.L2Cache_Controller.NP.L1_GETX          221      0.00%      0.00%
system.ruby.L2Cache_Controller.SS.L1_GET_INSTR         6655      0.00%      0.00%
system.ruby.L2Cache_Controller.SS.L2_Replacement_clean            3      0.00%      0.00%
system.ruby.L2Cache_Controller.M.L1_GETS         2955      0.00%      0.00%
system.ruby.L2Cache_Controller.M.L1_GETX         3306      0.00%      0.00%
system.ruby.L2Cache_Controller.M.L2_Replacement          347      0.00%      0.00%
system.ruby.L2Cache_Controller.M.L2_Replacement_clean            4      0.00%      0.00%
system.ruby.L2Cache_Controller.MT.L1_PUTX         6507      0.00%      0.00%
system.ruby.L2Cache_Controller.M_I.Mem_Ack          354      0.00%      0.00%
system.ruby.L2Cache_Controller.I_I.Ack_all            3      0.00%      0.00%
system.ruby.L2Cache_Controller.ISS.Mem_Data           25      0.00%      0.00%
system.ruby.L2Cache_Controller.IS.Mem_Data          193      0.00%      0.00%
system.ruby.L2Cache_Controller.IM.Mem_Data          221      0.00%      0.00%
system.ruby.L2Cache_Controller.MT_MB.Exclusive_Unblock         6507      0.00%      0.00%

---------- End Simulation Statistics   ----------
