
---------- Begin Simulation Statistics ----------
sim_seconds                                  5.335256                       # Number of seconds simulated
sim_ticks                                5335256051500                       # Number of ticks simulated
final_tick                               5335256051500                       # Number of ticks from beginning of simulation (restored from checkpoints and never reset)
sim_freq                                 1000000000000                       # Frequency of simulated ticks
host_inst_rate                                 361734                       # Simulator instruction rate (inst/s)
host_op_rate                                   707345                       # Simulator op (including micro ops) rate (op/s)
host_tick_rate                            20455775862                       # Simulator tick rate (ticks/s)
host_mem_usage                                1125604                       # Number of bytes of host memory used
host_seconds                                   260.82                       # Real time elapsed on the host
sim_insts                                    94347204                       # Number of instructions simulated
sim_ops                                     184489100                       # Number of ops (including micro ops) simulated
system.voltage_domain.voltage                       1                       # Voltage in Volts
system.clk_domain.clock                          1000                       # Clock period in ticks
system.mem_ctrls.bytes_read::ruby.dir_cntrl0     35623680                       # Number of bytes read from this memory
system.mem_ctrls.bytes_read::total           35623680                       # Number of bytes read from this memory
system.mem_ctrls.bytes_written::ruby.dir_cntrl0     32979840                       # Number of bytes written to this memory
system.mem_ctrls.bytes_written::total        32979840                       # Number of bytes written to this memory
system.mem_ctrls.num_reads::ruby.dir_cntrl0       556620                       # Number of read requests responded to by this memory
system.mem_ctrls.num_reads::total              556620                       # Number of read requests responded to by this memory
system.mem_ctrls.num_writes::ruby.dir_cntrl0       515310                       # Number of write requests responded to by this memory
system.mem_ctrls.num_writes::total             515310                       # Number of write requests responded to by this memory
system.mem_ctrls.bw_read::ruby.dir_cntrl0      6677033                       # Total read bandwidth from this memory (bytes/s)
system.mem_ctrls.bw_read::total               6677033                       # Total read bandwidth from this memory (bytes/s)
system.mem_ctrls.bw_write::ruby.dir_cntrl0      6181492                       # Write bandwidth from this memory (bytes/s)
system.mem_ctrls.bw_write::total              6181492                       # Write bandwidth from this memory (bytes/s)
system.mem_ctrls.bw_total::ruby.dir_cntrl0     12858524                       # Total bandwidth to/from this memory (bytes/s)
system.mem_ctrls.bw_total::total             12858524                       # Total bandwidth to/from this memory (bytes/s)
system.mem_ctrls.readReqs                      556620                       # Number of read requests accepted
system.mem_ctrls.writeReqs                     515310                       # Number of write requests accepted
system.mem_ctrls.readBursts                    556620                       # Number of DRAM read bursts, including those serviced by the write queue
system.mem_ctrls.writeBursts                   515310                       # Number of DRAM write bursts, including those merged in the write queue
system.mem_ctrls.bytesReadDRAM               35620352                       # Total number of bytes read from DRAM
system.mem_ctrls.bytesReadWrQ                    3328                       # Total number of bytes read from write queue
system.mem_ctrls.bytesWritten                32978176                       # Total number of bytes written to DRAM
system.mem_ctrls.bytesReadSys                35623680                       # Total read bytes from the system interface side
system.mem_ctrls.bytesWrittenSys             32979840                       # Total written bytes from the system interface side
system.mem_ctrls.servicedByWrQ                     52                       # Number of DRAM read bursts serviced by the write queue
system.mem_ctrls.mergedWrBursts                     7                       # Number of DRAM write bursts merged with an existing one
system.mem_ctrls.neitherReadNorWriteReqs            0                       # Number of requests that are neither read nor write
system.mem_ctrls.perBankRdBursts::0             33893                       # Per bank write bursts
system.mem_ctrls.perBankRdBursts::1             33924                       # Per bank write bursts
system.mem_ctrls.perBankRdBursts::2             34314                       # Per bank write bursts
system.mem_ctrls.perBankRdBursts::3             34711                       # Per bank write bursts
system.mem_ctrls.perBankRdBursts::4             34852                       # Per bank write bursts
system.mem_ctrls.perBankRdBursts::5             34866                       # Per bank write bursts
system.mem_ctrls.perBankRdBursts::6             35599                       # Per bank write bursts
system.mem_ctrls.perBankRdBursts::7             35052                       # Per bank write bursts
system.mem_ctrls.perBankRdBursts::8             34855                       # Per bank write bursts
system.mem_ctrls.perBankRdBursts::9             34571                       # Per bank write bursts
system.mem_ctrls.perBankRdBursts::10            35058                       # Per bank write bursts
system.mem_ctrls.perBankRdBursts::11            35452                       # Per bank write bursts
system.mem_ctrls.perBankRdBursts::12            35247                       # Per bank write bursts
system.mem_ctrls.perBankRdBursts::13            35243                       # Per bank write bursts
system.mem_ctrls.perBankRdBursts::14            34578                       # Per bank write bursts
system.mem_ctrls.perBankRdBursts::15            34353                       # Per bank write bursts
system.mem_ctrls.perBankWrBursts::0             31734                       # Per bank write bursts
system.mem_ctrls.perBankWrBursts::1             31402                       # Per bank write bursts
system.mem_ctrls.perBankWrBursts::2             32002                       # Per bank write bursts
system.mem_ctrls.perBankWrBursts::3             32369                       # Per bank write bursts
system.mem_ctrls.perBankWrBursts::4             32299                       # Per bank write bursts
system.mem_ctrls.perBankWrBursts::5             32220                       # Per bank write bursts
system.mem_ctrls.perBankWrBursts::6             32849                       # Per bank write bursts
system.mem_ctrls.perBankWrBursts::7             32588                       # Per bank write bursts
system.mem_ctrls.perBankWrBursts::8             32064                       # Per bank write bursts
system.mem_ctrls.perBankWrBursts::9             31898                       # Per bank write bursts
system.mem_ctrls.perBankWrBursts::10            32259                       # Per bank write bursts
system.mem_ctrls.perBankWrBursts::11            32574                       # Per bank write bursts
system.mem_ctrls.perBankWrBursts::12            32575                       # Per bank write bursts
system.mem_ctrls.perBankWrBursts::13            32588                       # Per bank write bursts
system.mem_ctrls.perBankWrBursts::14            32044                       # Per bank write bursts
system.mem_ctrls.perBankWrBursts::15            31819                       # Per bank write bursts
system.mem_ctrls.numRdRetry                         0                       # Number of times read queue was full causing retry
system.mem_ctrls.numWrRetry                         0                       # Number of times write queue was full causing retry
system.mem_ctrls.totGap                  5335255898500                       # Total gap between requests
system.mem_ctrls.readPktSize::0                     0                       # Read request sizes (log2)
system.mem_ctrls.readPktSize::1                     0                       # Read request sizes (log2)
system.mem_ctrls.readPktSize::2                     0                       # Read request sizes (log2)
system.mem_ctrls.readPktSize::3                     0                       # Read request sizes (log2)
system.mem_ctrls.readPktSize::4                     0                       # Read request sizes (log2)
system.mem_ctrls.readPktSize::5                     0                       # Read request sizes (log2)
system.mem_ctrls.readPktSize::6                556620                       # Read request sizes (log2)
system.mem_ctrls.writePktSize::0                    0                       # Write request sizes (log2)
system.mem_ctrls.writePktSize::1                    0                       # Write request sizes (log2)
system.mem_ctrls.writePktSize::2                    0                       # Write request sizes (log2)
system.mem_ctrls.writePktSize::3                    0                       # Write request sizes (log2)
system.mem_ctrls.writePktSize::4                    0                       # Write request sizes (log2)
system.mem_ctrls.writePktSize::5                    0                       # Write request sizes (log2)
system.mem_ctrls.writePktSize::6               515310                       # Write request sizes (log2)
system.mem_ctrls.rdQLenPdf::0                  556564                       # What read queue length does an incoming req see
system.mem_ctrls.rdQLenPdf::1                       4                       # What read queue length does an incoming req see
system.mem_ctrls.rdQLenPdf::2                       0                       # What read queue length does an incoming req see
system.mem_ctrls.rdQLenPdf::3                       0                       # What read queue length does an incoming req see
system.mem_ctrls.rdQLenPdf::4                       0                       # What read queue length does an incoming req see
system.mem_ctrls.rdQLenPdf::5                       0                       # What read queue length does an incoming req see
system.mem_ctrls.rdQLenPdf::6                       0                       # What read queue length does an incoming req see
system.mem_ctrls.rdQLenPdf::7                       0                       # What read queue length does an incoming req see
system.mem_ctrls.rdQLenPdf::8                       0                       # What read queue length does an incoming req see
system.mem_ctrls.rdQLenPdf::9                       0                       # What read queue length does an incoming req see
system.mem_ctrls.rdQLenPdf::10                      0                       # What read queue length does an incoming req see
system.mem_ctrls.rdQLenPdf::11                      0                       # What read queue length does an incoming req see
system.mem_ctrls.rdQLenPdf::12                      0                       # What read queue length does an incoming req see
system.mem_ctrls.rdQLenPdf::13                      0                       # What read queue length does an incoming req see
system.mem_ctrls.rdQLenPdf::14                      0                       # What read queue length does an incoming req see
system.mem_ctrls.rdQLenPdf::15                      0                       # What read queue length does an incoming req see
system.mem_ctrls.rdQLenPdf::16                      0                       # What read queue length does an incoming req see
system.mem_ctrls.rdQLenPdf::17                      0                       # What read queue length does an incoming req see
system.mem_ctrls.rdQLenPdf::18                      0                       # What read queue length does an incoming req see
system.mem_ctrls.rdQLenPdf::19                      0                       # What read queue length does an incoming req see
system.mem_ctrls.rdQLenPdf::20                      0                       # What read queue length does an incoming req see
system.mem_ctrls.rdQLenPdf::21                      0                       # What read queue length does an incoming req see
system.mem_ctrls.rdQLenPdf::22                      0                       # What read queue length does an incoming req see
system.mem_ctrls.rdQLenPdf::23                      0                       # What read queue length does an incoming req see
system.mem_ctrls.rdQLenPdf::24                      0                       # What read queue length does an incoming req see
system.mem_ctrls.rdQLenPdf::25                      0                       # What read queue length does an incoming req see
system.mem_ctrls.rdQLenPdf::26                      0                       # What read queue length does an incoming req see
system.mem_ctrls.rdQLenPdf::27                      0                       # What read queue length does an incoming req see
system.mem_ctrls.rdQLenPdf::28                      0                       # What read queue length does an incoming req see
system.mem_ctrls.rdQLenPdf::29                      0                       # What read queue length does an incoming req see
system.mem_ctrls.rdQLenPdf::30                      0                       # What read queue length does an incoming req see
system.mem_ctrls.rdQLenPdf::31                      0                       # What read queue length does an incoming req see
system.mem_ctrls.wrQLenPdf::0                       1                       # What write queue length does an incoming req see
system.mem_ctrls.wrQLenPdf::1                       1                       # What write queue length does an incoming req see
system.mem_ctrls.wrQLenPdf::2                       1                       # What write queue length does an incoming req see
system.mem_ctrls.wrQLenPdf::3                       1                       # What write queue length does an incoming req see
system.mem_ctrls.wrQLenPdf::4                       1                       # What write queue length does an incoming req see
system.mem_ctrls.wrQLenPdf::5                       1                       # What write queue length does an incoming req see
system.mem_ctrls.wrQLenPdf::6                       1                       # What write queue length does an incoming req see
system.mem_ctrls.wrQLenPdf::7                       1                       # What write queue length does an incoming req see
system.mem_ctrls.wrQLenPdf::8                       1                       # What write queue length does an incoming req see
system.mem_ctrls.wrQLenPdf::9                       1                       # What write queue length does an incoming req see
system.mem_ctrls.wrQLenPdf::10                      1                       # What write queue length does an incoming req see
system.mem_ctrls.wrQLenPdf::11                      1                       # What write queue length does an incoming req see
system.mem_ctrls.wrQLenPdf::12                      1                       # What write queue length does an incoming req see
system.mem_ctrls.wrQLenPdf::13                      1                       # What write queue length does an incoming req see
system.mem_ctrls.wrQLenPdf::14                      1                       # What write queue length does an incoming req see
system.mem_ctrls.wrQLenPdf::15                   1933                       # What write queue length does an incoming req see
system.mem_ctrls.wrQLenPdf::16                   2939                       # What write queue length does an incoming req see
system.mem_ctrls.wrQLenPdf::17                  31707                       # What write queue length does an incoming req see
system.mem_ctrls.wrQLenPdf::18                  32342                       # What write queue length does an incoming req see
system.mem_ctrls.wrQLenPdf::19                  31925                       # What write queue length does an incoming req see
system.mem_ctrls.wrQLenPdf::20                  32449                       # What write queue length does an incoming req see
system.mem_ctrls.wrQLenPdf::21                  32386                       # What write queue length does an incoming req see
system.mem_ctrls.wrQLenPdf::22                  31699                       # What write queue length does an incoming req see
system.mem_ctrls.wrQLenPdf::23                  32350                       # What write queue length does an incoming req see
system.mem_ctrls.wrQLenPdf::24                  32331                       # What write queue length does an incoming req see
system.mem_ctrls.wrQLenPdf::25                  31703                       # What write queue length does an incoming req see
system.mem_ctrls.wrQLenPdf::26                  31814                       # What write queue length does an incoming req see
system.mem_ctrls.wrQLenPdf::27                  31690                       # What write queue length does an incoming req see
system.mem_ctrls.wrQLenPdf::28                  31753                       # What write queue length does an incoming req see
system.mem_ctrls.wrQLenPdf::29                  31375                       # What write queue length does an incoming req see
system.mem_ctrls.wrQLenPdf::30                  31429                       # What write queue length does an incoming req see
system.mem_ctrls.wrQLenPdf::31                  31473                       # What write queue length does an incoming req see
system.mem_ctrls.wrQLenPdf::32                  31282                       # What write queue length does an incoming req see
system.mem_ctrls.wrQLenPdf::33                    132                       # What write queue length does an incoming req see
system.mem_ctrls.wrQLenPdf::34                    112                       # What write queue length does an incoming req see
system.mem_ctrls.wrQLenPdf::35                    105                       # What write queue length does an incoming req see
system.mem_ctrls.wrQLenPdf::36                     81                       # What write queue length does an incoming req see
system.mem_ctrls.wrQLenPdf::37                     73                       # What write queue length does an incoming req see
system.mem_ctrls.wrQLenPdf::38                     66                       # What write queue length does an incoming req see
system.mem_ctrls.wrQLenPdf::39                     51                       # What write queue length does an incoming req see
system.mem_ctrls.wrQLenPdf::40                     38                       # What write queue length does an incoming req see
system.mem_ctrls.wrQLenPdf::41                     21                       # What write queue length does an incoming req see
system.mem_ctrls.wrQLenPdf::42                     14                       # What write queue length does an incoming req see
system.mem_ctrls.wrQLenPdf::43                      8                       # What write queue length does an incoming req see
system.mem_ctrls.wrQLenPdf::44                      5                       # What write queue length does an incoming req see
system.mem_ctrls.wrQLenPdf::45                      1                       # What write queue length does an incoming req see
system.mem_ctrls.wrQLenPdf::46                      1                       # What write queue length does an incoming req see
system.mem_ctrls.wrQLenPdf::47                      0                       # What write queue length does an incoming req see
system.mem_ctrls.wrQLenPdf::48                      0                       # What write queue length does an incoming req see
system.mem_ctrls.wrQLenPdf::49                      0                       # What write queue length does an incoming req see
system.mem_ctrls.wrQLenPdf::50                      0                       # What write queue length does an incoming req see
system.mem_ctrls.wrQLenPdf::51                      0                       # What write queue length does an incoming req see
system.mem_ctrls.wrQLenPdf::52                      0                       # What write queue length does an incoming req see
system.mem_ctrls.wrQLenPdf::53                      0                       # What write queue length does an incoming req see
system.mem_ctrls.wrQLenPdf::54                      0                       # What write queue length does an incoming req see
system.mem_ctrls.wrQLenPdf::55                      0                       # What write queue length does an incoming req see
system.mem_ctrls.wrQLenPdf::56                      0                       # What write queue length does an incoming req see
system.mem_ctrls.wrQLenPdf::57                      0                       # What write queue length does an incoming req see
system.mem_ctrls.wrQLenPdf::58                      0                       # What write queue length does an incoming req see
system.mem_ctrls.wrQLenPdf::59                      0                       # What write queue length does an incoming req see
system.mem_ctrls.wrQLenPdf::60                      0                       # What write queue length does an incoming req see
system.mem_ctrls.wrQLenPdf::61                      0                       # What write queue length does an incoming req see
system.mem_ctrls.wrQLenPdf::62                      0                       # What write queue length does an incoming req see
system.mem_ctrls.wrQLenPdf::63                      0                       # What write queue length does an incoming req see
system.mem_ctrls.bytesPerActivate::samples       161217                       # Bytes accessed per row activation
system.mem_ctrls.bytesPerActivate::mean    425.502720                       # Bytes accessed per row activation
system.mem_ctrls.bytesPerActivate::gmean   251.514079                       # Bytes accessed per row activation
system.mem_ctrls.bytesPerActivate::stdev   382.975344                       # Bytes accessed per row activation
system.mem_ctrls.bytesPerActivate::0-127        46439     28.81%     28.81% # Bytes accessed per row activation
system.mem_ctrls.bytesPerActivate::128-255        30991     19.22%     48.03% # Bytes accessed per row activation
system.mem_ctrls.bytesPerActivate::256-383        15484      9.60%     57.63% # Bytes accessed per row activation
system.mem_ctrls.bytesPerActivate::384-511         9563      5.93%     63.56% # Bytes accessed per row activation
system.mem_ctrls.bytesPerActivate::512-639         8430      5.23%     68.79% # Bytes accessed per row activation
system.mem_ctrls.bytesPerActivate::640-767         5578      3.46%     72.25% # Bytes accessed per row activation
system.mem_ctrls.bytesPerActivate::768-895         4935      3.06%     75.31% # Bytes accessed per row activation
system.mem_ctrls.bytesPerActivate::896-1023         4830      3.00%     78.31% # Bytes accessed per row activation
system.mem_ctrls.bytesPerActivate::1024-1151        34967     21.69%    100.00% # Bytes accessed per row activation
system.mem_ctrls.bytesPerActivate::total       161217                       # Bytes accessed per row activation
system.mem_ctrls.rdPerTurnAround::samples        31223                       # Reads before turning the bus around for writes
system.mem_ctrls.rdPerTurnAround::mean      17.825481                       # Reads before turning the bus around for writes
system.mem_ctrls.rdPerTurnAround::stdev    325.552441                       # Reads before turning the bus around for writes
system.mem_ctrls.rdPerTurnAround::0-2047        31222    100.00%    100.00% # Reads before turning the bus around for writes
system.mem_ctrls.rdPerTurnAround::57344-59391            1      0.00%    100.00% # Reads before turning the bus around for writes
system.mem_ctrls.rdPerTurnAround::total         31223                       # Reads before turning the bus around for writes
system.mem_ctrls.wrPerTurnAround::samples        31223                       # Writes before turning the bus around for reads
system.mem_ctrls.wrPerTurnAround::mean      16.503347                       # Writes before turning the bus around for reads
system.mem_ctrls.wrPerTurnAround::gmean     16.399858                       # Writes before turning the bus around for reads
system.mem_ctrls.wrPerTurnAround::stdev      2.243642                       # Writes before turning the bus around for reads
system.mem_ctrls.wrPerTurnAround::16-17         29105     93.22%     93.22% # Writes before turning the bus around for reads
system.mem_ctrls.wrPerTurnAround::18-19           379      1.21%     94.43% # Writes before turning the bus around for reads
system.mem_ctrls.wrPerTurnAround::20-21           438      1.40%     95.83% # Writes before turning the bus around for reads
system.mem_ctrls.wrPerTurnAround::22-23           204      0.65%     96.49% # Writes before turning the bus around for reads
system.mem_ctrls.wrPerTurnAround::24-25           706      2.26%     98.75% # Writes before turning the bus around for reads
system.mem_ctrls.wrPerTurnAround::26-27            25      0.08%     98.83% # Writes before turning the bus around for reads
system.mem_ctrls.wrPerTurnAround::28-29           271      0.87%     99.70% # Writes before turning the bus around for reads
system.mem_ctrls.wrPerTurnAround::30-31            16      0.05%     99.75% # Writes before turning the bus around for reads
system.mem_ctrls.wrPerTurnAround::32-33            13      0.04%     99.79% # Writes before turning the bus around for reads
system.mem_ctrls.wrPerTurnAround::34-35             5      0.02%     99.80% # Writes before turning the bus around for reads
system.mem_ctrls.wrPerTurnAround::36-37             8      0.03%     99.83% # Writes before turning the bus around for reads
system.mem_ctrls.wrPerTurnAround::38-39            11      0.04%     99.87% # Writes before turning the bus around for reads
system.mem_ctrls.wrPerTurnAround::40-41             8      0.03%     99.89% # Writes before turning the bus around for reads
system.mem_ctrls.wrPerTurnAround::42-43             7      0.02%     99.91% # Writes before turning the bus around for reads
system.mem_ctrls.wrPerTurnAround::44-45            10      0.03%     99.95% # Writes before turning the bus around for reads
system.mem_ctrls.wrPerTurnAround::46-47             5      0.02%     99.96% # Writes before turning the bus around for reads
system.mem_ctrls.wrPerTurnAround::48-49             4      0.01%     99.97% # Writes before turning the bus around for reads
system.mem_ctrls.wrPerTurnAround::50-51             4      0.01%     99.99% # Writes before turning the bus around for reads
system.mem_ctrls.wrPerTurnAround::52-53             2      0.01%     99.99% # Writes before turning the bus around for reads
system.mem_ctrls.wrPerTurnAround::56-57             1      0.00%    100.00% # Writes before turning the bus around for reads
system.mem_ctrls.wrPerTurnAround::64-65             1      0.00%    100.00% # Writes before turning the bus around for reads
system.mem_ctrls.wrPerTurnAround::total         31223                       # Writes before turning the bus around for reads
system.mem_ctrls.totQLat                   7755548000                       # Total ticks spent queuing
system.mem_ctrls.totMemAccLat             18191198000                       # Total ticks spent from burst creation until serviced by the DRAM
system.mem_ctrls.totBusLat                 2782840000                       # Total ticks spent in databus transfers
system.mem_ctrls.avgQLat                     13934.59                       # Average queueing delay per DRAM burst
system.mem_ctrls.avgBusLat                    5000.00                       # Average bus latency per DRAM burst
system.mem_ctrls.avgMemAccLat                32684.59                       # Average memory access latency per DRAM burst
system.mem_ctrls.avgRdBW                         6.68                       # Average DRAM read bandwidth in MiByte/s
system.mem_ctrls.avgWrBW                         6.18                       # Average achieved write bandwidth in MiByte/s
system.mem_ctrls.avgRdBWSys                      6.68                       # Average system read bandwidth in MiByte/s
system.mem_ctrls.avgWrBWSys                      6.18                       # Average system write bandwidth in MiByte/s
system.mem_ctrls.peakBW                      12800.00                       # Theoretical peak bandwidth in MiByte/s
system.mem_ctrls.busUtil                         0.10                       # Data bus utilization in percentage
system.mem_ctrls.busUtilRead                     0.05                       # Data bus utilization in percentage for reads
system.mem_ctrls.busUtilWrite                    0.05                       # Data bus utilization in percentage for writes
system.mem_ctrls.avgRdQLen                       1.00                       # Average read queue length when enqueuing
system.mem_ctrls.avgWrQLen                      24.24                       # Average write queue length when enqueuing
system.mem_ctrls.readRowHits                   484801                       # Number of row buffer hits during reads
system.mem_ctrls.writeRowHits                  425832                       # Number of row buffer hits during writes
system.mem_ctrls.readRowHitRate                 87.11                       # Row buffer hit rate for reads
system.mem_ctrls.writeRowHitRate                82.64                       # Row buffer hit rate for writes
system.mem_ctrls.avgGap                    4977242.82                       # Average gap between requests
system.mem_ctrls.pageHitRate                    84.96                       # Row buffer hit rate, read and write combined
system.mem_ctrls_0.actEnergy                616449960                       # Energy for activate commands per rank (pJ)
system.mem_ctrls_0.preEnergy                336356625                       # Energy for precharge commands per rank (pJ)
system.mem_ctrls_0.readEnergy              2162245800                       # Energy for read commands per rank (pJ)
system.mem_ctrls_0.writeEnergy             1668360240                       # Energy for write commands per rank (pJ)
system.mem_ctrls_0.refreshEnergy         348472940400                       # Energy for refresh commands per rank (pJ)
system.mem_ctrls_0.actBackEnergy         164603091780                       # Energy for active background per rank (pJ)
system.mem_ctrls_0.preBackEnergy         3056764691250                       # Energy for precharge background per rank (pJ)
system.mem_ctrls_0.totalEnergy           3574624136055                       # Total energy per rank (pJ)
system.mem_ctrls_0.averagePower            670.000539                       # Core power per rank (mW)
system.mem_ctrls_0.memoryStateTime::IDLE 5084675046500                       # Time in different power states
system.mem_ctrls_0.memoryStateTime::REF  178155900000                       # Time in different power states
system.mem_ctrls_0.memoryStateTime::PRE_PDN            0                       # Time in different power states
system.mem_ctrls_0.memoryStateTime::ACT   72424680250                       # Time in different power states
system.mem_ctrls_0.memoryStateTime::ACT_PDN            0                       # Time in different power states
system.mem_ctrls_1.actEnergy                602327880                       # Energy for activate commands per rank (pJ)
system.mem_ctrls_1.preEnergy                328651125                       # Energy for precharge commands per rank (pJ)
system.mem_ctrls_1.readEnergy              2178961200                       # Energy for read commands per rank (pJ)
system.mem_ctrls_1.writeEnergy             1670621760                       # Energy for write commands per rank (pJ)
system.mem_ctrls_1.refreshEnergy         348472940400                       # Energy for refresh commands per rank (pJ)
system.mem_ctrls_1.actBackEnergy         163998404145                       # Energy for active background per rank (pJ)
system.mem_ctrls_1.preBackEnergy         3057295099500                       # Energy for precharge background per rank (pJ)
system.mem_ctrls_1.totalEnergy           3574547006010                       # Total energy per rank (pJ)
system.mem_ctrls_1.averagePower            669.986086                       # Core power per rank (mW)
system.mem_ctrls_1.memoryStateTime::IDLE 5085553656000                       # Time in different power states
system.mem_ctrls_1.memoryStateTime::REF  178155900000                       # Time in different power states
system.mem_ctrls_1.memoryStateTime::PRE_PDN            0                       # Time in different power states
system.mem_ctrls_1.memoryStateTime::ACT   71546038250                       # Time in different power states
system.mem_ctrls_1.memoryStateTime::ACT_PDN            0                       # Time in different power states
system.cpu_voltage_domain.voltage                   1                       # Voltage in Volts
system.cpu_clk_domain.clock                       500                       # Clock period in ticks
system.cpu.apic_clk_domain.clock                 8000                       # Clock period in ticks
system.cpu.numCycles                      10670512103                       # number of cpu cycles simulated
system.cpu.numWorkItemsStarted                      0                       # number of work items this cpu started
system.cpu.numWorkItemsCompleted                    0                       # number of work items this cpu completed
system.cpu.committedInsts                    94347204                       # Number of instructions committed
system.cpu.committedOps                     184489100                       # Number of ops (including micro ops) committed
system.cpu.num_int_alu_accesses             175567196                       # Number of integer alu accesses
system.cpu.num_fp_alu_accesses                  41144                       # Number of float alu accesses
system.cpu.num_func_calls                     2321466                       # number of times a function call or return occured
system.cpu.num_conditional_control_insts     16765107                       # number of instructions that are conditional controls
system.cpu.num_int_insts                    175567196                       # number of integer instructions
system.cpu.num_fp_insts                         41144                       # number of float instructions
system.cpu.num_int_register_reads           332610342                       # number of times the integer registers were read
system.cpu.num_int_register_writes          146094076                       # number of times the integer registers were written
system.cpu.num_fp_register_reads                67816                       # number of times the floating registers were read
system.cpu.num_fp_register_writes               32733                       # number of times the floating registers were written
system.cpu.num_cc_register_reads             96834848                       # number of times the CC registers were read
system.cpu.num_cc_register_writes            67203733                       # number of times the CC registers were written
system.cpu.num_mem_refs                      25564909                       # number of memory refs
system.cpu.num_load_insts                    15152454                       # Number of load instructions
system.cpu.num_store_insts                   10412455                       # Number of store instructions
system.cpu.num_idle_cycles               9810753786.694162                       # Number of idle cycles
system.cpu.num_busy_cycles               859758316.305839                       # Number of busy cycles
system.cpu.not_idle_fraction                 0.080573                       # Percentage of non-idle cycles
system.cpu.idle_fraction                     0.919427                       # Percentage of idle cycles
system.cpu.Branches                          20003760                       # Number of branches fetched
system.cpu.op_class::No_OpClass               1142172      0.62%      0.62% # Class of executed instruction
system.cpu.op_class::IntAlu                 157526535     85.38%     86.00% # Class of executed instruction
system.cpu.op_class::IntMult                   123956      0.07%     86.07% # Class of executed instruction
system.cpu.op_class::IntDiv                    109256      0.06%     86.13% # Class of executed instruction
system.cpu.op_class::FloatAdd                   29248      0.02%     86.15% # Class of executed instruction
system.cpu.op_class::FloatCmp                       0      0.00%     86.15% # Class of executed instruction
system.cpu.op_class::FloatCvt                      16      0.00%     86.15% # Class of executed instruction
system.cpu.op_class::FloatMult                      0      0.00%     86.15% # Class of executed instruction
system.cpu.op_class::FloatDiv                       0      0.00%     86.15% # Class of executed instruction
system.cpu.op_class::FloatSqrt                      0      0.00%     86.15% # Class of executed instruction
system.cpu.op_class::SimdAdd                        0      0.00%     86.15% # Class of executed instruction
system.cpu.op_class::SimdAddAcc                     0      0.00%     86.15% # Class of executed instruction
system.cpu.op_class::SimdAlu                        0      0.00%     86.15% # Class of executed instruction
system.cpu.op_class::SimdCmp                        0      0.00%     86.15% # Class of executed instruction
system.cpu.op_class::SimdCvt                        0      0.00%     86.15% # Class of executed instruction
system.cpu.op_class::SimdMisc                       0      0.00%     86.15% # Class of executed instruction
system.cpu.op_class::SimdMult                       0      0.00%     86.15% # Class of executed instruction
system.cpu.op_class::SimdMultAcc                    0      0.00%     86.15% # Class of executed instruction
system.cpu.op_class::SimdShift                      0      0.00%     86.15% # Class of executed instruction
system.cpu.op_class::SimdShiftAcc                   0      0.00%     86.15% # Class of executed instruction
system.cpu.op_class::SimdSqrt                       0      0.00%     86.15% # Class of executed instruction
system.cpu.op_class::SimdFloatAdd                   0      0.00%     86.15% # Class of executed instruction
system.cpu.op_class::SimdFloatAlu                   0      0.00%     86.15% # Class of executed instruction
system.cpu.op_class::SimdFloatCmp                   0      0.00%     86.15% # Class of executed instruction
system.cpu.op_class::SimdFloatCvt                   0      0.00%     86.15% # Class of executed instruction
system.cpu.op_class::SimdFloatDiv                   0      0.00%     86.15% # Class of executed instruction
system.cpu.op_class::SimdFloatMisc                  0      0.00%     86.15% # Class of executed instruction
system.cpu.op_class::SimdFloatMult                  0      0.00%     86.15% # Class of executed instruction
system.cpu.op_class::SimdFloatMultAcc               0      0.00%     86.15% # Class of executed instruction
system.cpu.op_class::SimdFloatSqrt                  0      0.00%     86.15% # Class of executed instruction
system.cpu.op_class::MemRead                 15147485      8.21%     94.36% # Class of executed instruction
system.cpu.op_class::MemWrite                10412455      5.64%    100.00% # Class of executed instruction
system.cpu.op_class::IprAccess                      0      0.00%    100.00% # Class of executed instruction
system.cpu.op_class::InstPrefetch                   0      0.00%    100.00% # Class of executed instruction
system.cpu.op_class::total                  184491123                       # Class of executed instruction
system.cpu.kern.inst.arm                            0                       # number of arm instructions executed
system.cpu.kern.inst.quiesce                        0                       # number of quiesce instructions executed
system.iobus.trans_dist::ReadReq               842194                       # Transaction distribution
system.iobus.trans_dist::ReadResp              842194                       # Transaction distribution
system.iobus.trans_dist::WriteReq               12549                       # Transaction distribution
system.iobus.trans_dist::WriteResp              12549                       # Transaction distribution
system.iobus.trans_dist::MessageReq              1615                       # Transaction distribution
system.iobus.trans_dist::MessageResp             1615                       # Transaction distribution
system.iobus.pkt_count_system.pc.south_bridge.io_apic.int_master::system.ruby.l1_cntrl0.sequencer.pio-slave-port         3230                       # Packet count per connected master and slave (bytes)
system.iobus.pkt_count_system.pc.south_bridge.io_apic.int_master::total         3230                       # Packet count per connected master and slave (bytes)
system.iobus.pkt_count_system.ruby.l1_cntrl0.sequencer.mem-master-port::system.pc.south_bridge.cmos.pio           48                       # Packet count per connected master and slave (bytes)
system.iobus.pkt_count_system.ruby.l1_cntrl0.sequencer.mem-master-port::system.pc.south_bridge.dma1.pio            6                       # Packet count per connected master and slave (bytes)
system.iobus.pkt_count_system.ruby.l1_cntrl0.sequencer.mem-master-port::system.pc.south_bridge.ide.pio         6764                       # Packet count per connected master and slave (bytes)
system.iobus.pkt_count_system.ruby.l1_cntrl0.sequencer.mem-master-port::system.pc.south_bridge.ide-pciconf          180                       # Packet count per connected master and slave (bytes)
system.iobus.pkt_count_system.ruby.l1_cntrl0.sequencer.mem-master-port::system.pc.south_bridge.keyboard.pio         1364                       # Packet count per connected master and slave (bytes)
system.iobus.pkt_count_system.ruby.l1_cntrl0.sequencer.mem-master-port::system.pc.south_bridge.pic1.pio          130                       # Packet count per connected master and slave (bytes)
system.iobus.pkt_count_system.ruby.l1_cntrl0.sequencer.mem-master-port::system.pc.south_bridge.pic2.pio           54                       # Packet count per connected master and slave (bytes)
system.iobus.pkt_count_system.ruby.l1_cntrl0.sequencer.mem-master-port::system.pc.south_bridge.pit.pio           30                       # Packet count per connected master and slave (bytes)
system.iobus.pkt_count_system.ruby.l1_cntrl0.sequencer.mem-master-port::system.pc.south_bridge.speaker.pio       934582                       # Packet count per connected master and slave (bytes)
system.iobus.pkt_count_system.ruby.l1_cntrl0.sequencer.mem-master-port::system.pc.south_bridge.io_apic.pio         1554                       # Packet count per connected master and slave (bytes)
system.iobus.pkt_count_system.ruby.l1_cntrl0.sequencer.mem-master-port::system.pc.i_dont_exist1.pio          174                       # Packet count per connected master and slave (bytes)
system.iobus.pkt_count_system.ruby.l1_cntrl0.sequencer.mem-master-port::system.pc.behind_pci.pio            2                       # Packet count per connected master and slave (bytes)
system.iobus.pkt_count_system.ruby.l1_cntrl0.sequencer.mem-master-port::system.pc.com_1.pio        29328                       # Packet count per connected master and slave (bytes)
system.iobus.pkt_count_system.ruby.l1_cntrl0.sequencer.mem-master-port::system.pc.fake_com_2.pio           12                       # Packet count per connected master and slave (bytes)
system.iobus.pkt_count_system.ruby.l1_cntrl0.sequencer.mem-master-port::system.pc.fake_com_3.pio           12                       # Packet count per connected master and slave (bytes)
system.iobus.pkt_count_system.ruby.l1_cntrl0.sequencer.mem-master-port::system.pc.fake_com_4.pio           12                       # Packet count per connected master and slave (bytes)
system.iobus.pkt_count_system.ruby.l1_cntrl0.sequencer.mem-master-port::system.pc.fake_floppy.pio           10                       # Packet count per connected master and slave (bytes)
system.iobus.pkt_count_system.ruby.l1_cntrl0.sequencer.mem-master-port::system.ruby.l1_cntrl0.sequencer.pio-slave-port       733098                       # Packet count per connected master and slave (bytes)
system.iobus.pkt_count_system.ruby.l1_cntrl0.sequencer.mem-master-port::system.pc.pciconfig.pio         2126                       # Packet count per connected master and slave (bytes)
system.iobus.pkt_count_system.ruby.l1_cntrl0.sequencer.mem-master-port::total      1709486                       # Packet count per connected master and slave (bytes)
system.iobus.pkt_count::total                 1712716                       # Packet count per connected master and slave (bytes)
system.iobus.pkt_size_system.pc.south_bridge.io_apic.int_master::system.ruby.l1_cntrl0.sequencer.pio-slave-port         6460                       # Cumulative packet size per connected master and slave (bytes)
system.iobus.pkt_size_system.pc.south_bridge.io_apic.int_master::total         6460                       # Cumulative packet size per connected master and slave (bytes)
system.iobus.pkt_size_system.ruby.l1_cntrl0.sequencer.mem-master-port::system.pc.south_bridge.cmos.pio           24                       # Cumulative packet size per connected master and slave (bytes)
system.iobus.pkt_size_system.ruby.l1_cntrl0.sequencer.mem-master-port::system.pc.south_bridge.dma1.pio            3                       # Cumulative packet size per connected master and slave (bytes)
system.iobus.pkt_size_system.ruby.l1_cntrl0.sequencer.mem-master-port::system.pc.south_bridge.ide.pio         4242                       # Cumulative packet size per connected master and slave (bytes)
system.iobus.pkt_size_system.ruby.l1_cntrl0.sequencer.mem-master-port::system.pc.south_bridge.ide-pciconf          221                       # Cumulative packet size per connected master and slave (bytes)
system.iobus.pkt_size_system.ruby.l1_cntrl0.sequencer.mem-master-port::system.pc.south_bridge.keyboard.pio          682                       # Cumulative packet size per connected master and slave (bytes)
system.iobus.pkt_size_system.ruby.l1_cntrl0.sequencer.mem-master-port::system.pc.south_bridge.pic1.pio           65                       # Cumulative packet size per connected master and slave (bytes)
system.iobus.pkt_size_system.ruby.l1_cntrl0.sequencer.mem-master-port::system.pc.south_bridge.pic2.pio           27                       # Cumulative packet size per connected master and slave (bytes)
system.iobus.pkt_size_system.ruby.l1_cntrl0.sequencer.mem-master-port::system.pc.south_bridge.pit.pio           15                       # Cumulative packet size per connected master and slave (bytes)
system.iobus.pkt_size_system.ruby.l1_cntrl0.sequencer.mem-master-port::system.pc.south_bridge.speaker.pio       467291                       # Cumulative packet size per connected master and slave (bytes)
system.iobus.pkt_size_system.ruby.l1_cntrl0.sequencer.mem-master-port::system.pc.south_bridge.io_apic.pio         3108                       # Cumulative packet size per connected master and slave (bytes)
system.iobus.pkt_size_system.ruby.l1_cntrl0.sequencer.mem-master-port::system.pc.i_dont_exist1.pio           87                       # Cumulative packet size per connected master and slave (bytes)
system.iobus.pkt_size_system.ruby.l1_cntrl0.sequencer.mem-master-port::system.pc.behind_pci.pio            1                       # Cumulative packet size per connected master and slave (bytes)
system.iobus.pkt_size_system.ruby.l1_cntrl0.sequencer.mem-master-port::system.pc.com_1.pio        14664                       # Cumulative packet size per connected master and slave (bytes)
system.iobus.pkt_size_system.ruby.l1_cntrl0.sequencer.mem-master-port::system.pc.fake_com_2.pio            6                       # Cumulative packet size per connected master and slave (bytes)
system.iobus.pkt_size_system.ruby.l1_cntrl0.sequencer.mem-master-port::system.pc.fake_com_3.pio            6                       # Cumulative packet size per connected master and slave (bytes)
system.iobus.pkt_size_system.ruby.l1_cntrl0.sequencer.mem-master-port::system.pc.fake_com_4.pio            6                       # Cumulative packet size per connected master and slave (bytes)
system.iobus.pkt_size_system.ruby.l1_cntrl0.sequencer.mem-master-port::system.pc.fake_floppy.pio            5                       # Cumulative packet size per connected master and slave (bytes)
system.iobus.pkt_size_system.ruby.l1_cntrl0.sequencer.mem-master-port::system.ruby.l1_cntrl0.sequencer.pio-slave-port      1466190                       # Cumulative packet size per connected master and slave (bytes)
system.iobus.pkt_size_system.ruby.l1_cntrl0.sequencer.mem-master-port::system.pc.pciconfig.pio         4252                       # Cumulative packet size per connected master and slave (bytes)
system.iobus.pkt_size_system.ruby.l1_cntrl0.sequencer.mem-master-port::total      1960895                       # Cumulative packet size per connected master and slave (bytes)
system.iobus.pkt_size::total                  1967355                       # Cumulative packet size per connected master and slave (bytes)
system.iobus.reqLayer0.occupancy                47000                       # Layer occupancy (ticks)
system.iobus.reqLayer0.utilization                0.0                       # Layer utilization (%)
system.iobus.reqLayer1.occupancy                 6500                       # Layer occupancy (ticks)
system.iobus.reqLayer1.utilization                0.0                       # Layer utilization (%)
system.iobus.reqLayer2.occupancy              5930500                       # Layer occupancy (ticks)
system.iobus.reqLayer2.utilization                0.0                       # Layer utilization (%)
system.iobus.reqLayer3.occupancy               146000                       # Layer occupancy (ticks)
system.iobus.reqLayer3.utilization                0.0                       # Layer utilization (%)
system.iobus.reqLayer4.occupancy              1070000                       # Layer occupancy (ticks)
system.iobus.reqLayer4.utilization                0.0                       # Layer utilization (%)
system.iobus.reqLayer5.occupancy               135500                       # Layer occupancy (ticks)
system.iobus.reqLayer5.utilization                0.0                       # Layer utilization (%)
system.iobus.reqLayer6.occupancy                57000                       # Layer occupancy (ticks)
system.iobus.reqLayer6.utilization                0.0                       # Layer utilization (%)
system.iobus.reqLayer7.occupancy                27500                       # Layer occupancy (ticks)
system.iobus.reqLayer7.utilization                0.0                       # Layer utilization (%)
system.iobus.reqLayer8.occupancy            467292000                       # Layer occupancy (ticks)
system.iobus.reqLayer8.utilization                0.0                       # Layer utilization (%)
system.iobus.reqLayer9.occupancy              1426500                       # Layer occupancy (ticks)
system.iobus.reqLayer9.utilization                0.0                       # Layer utilization (%)
system.iobus.reqLayer10.occupancy              190500                       # Layer occupancy (ticks)
system.iobus.reqLayer10.utilization               0.0                       # Layer utilization (%)
system.iobus.reqLayer12.occupancy                2500                       # Layer occupancy (ticks)
system.iobus.reqLayer12.utilization               0.0                       # Layer utilization (%)
system.iobus.reqLayer13.occupancy            24319000                       # Layer occupancy (ticks)
system.iobus.reqLayer13.utilization               0.0                       # Layer utilization (%)
system.iobus.reqLayer14.occupancy               12000                       # Layer occupancy (ticks)
system.iobus.reqLayer14.utilization               0.0                       # Layer utilization (%)
system.iobus.reqLayer15.occupancy               12000                       # Layer occupancy (ticks)
system.iobus.reqLayer15.utilization               0.0                       # Layer utilization (%)
system.iobus.reqLayer16.occupancy               12000                       # Layer occupancy (ticks)
system.iobus.reqLayer16.utilization               0.0                       # Layer utilization (%)
system.iobus.reqLayer17.occupancy               10000                       # Layer occupancy (ticks)
system.iobus.reqLayer17.utilization               0.0                       # Layer utilization (%)
system.iobus.reqLayer18.occupancy           465341224                       # Layer occupancy (ticks)
system.iobus.reqLayer18.utilization               0.0                       # Layer utilization (%)
system.iobus.reqLayer20.occupancy             1329000                       # Layer occupancy (ticks)
system.iobus.reqLayer20.utilization               0.0                       # Layer utilization (%)
system.iobus.respLayer0.occupancy             2346224                       # Layer occupancy (ticks)
system.iobus.respLayer0.utilization               0.0                       # Layer utilization (%)
system.iobus.respLayer2.occupancy          1792434500                       # Layer occupancy (ticks)
system.iobus.respLayer2.utilization               0.0                       # Layer utilization (%)
system.pc.south_bridge.ide.disks0.dma_read_full_pages            9                       # Number of full page size DMA reads (not PRD).
system.pc.south_bridge.ide.disks0.dma_read_bytes        36864                       # Number of bytes transfered via DMA reads (not PRD).
system.pc.south_bridge.ide.disks0.dma_read_txs            9                       # Number of DMA read transactions (not PRD).
system.pc.south_bridge.ide.disks0.dma_write_full_pages          672                       # Number of full page size DMA writes.
system.pc.south_bridge.ide.disks0.dma_write_bytes      2755584                       # Number of bytes transfered via DMA writes.
system.pc.south_bridge.ide.disks0.dma_write_txs          676                       # Number of DMA write transactions.
system.pc.south_bridge.ide.disks1.dma_read_full_pages            0                       # Number of full page size DMA reads (not PRD).
system.pc.south_bridge.ide.disks1.dma_read_bytes            0                       # Number of bytes transfered via DMA reads (not PRD).
system.pc.south_bridge.ide.disks1.dma_read_txs            0                       # Number of DMA read transactions (not PRD).
system.pc.south_bridge.ide.disks1.dma_write_full_pages            1                       # Number of full page size DMA writes.
system.pc.south_bridge.ide.disks1.dma_write_bytes         4096                       # Number of bytes transfered via DMA writes.
system.pc.south_bridge.ide.disks1.dma_write_txs            1                       # Number of DMA write transactions.
system.ruby.clk_domain.clock                      500                       # Clock period in ticks
system.ruby.delayHist::bucket_size                  8                       # delay histogram for all message
system.ruby.delayHist::max_bucket                  79                       # delay histogram for all message
system.ruby.delayHist::samples               10920293                       # delay histogram for all message
system.ruby.delayHist::mean                  0.552586                       # delay histogram for all message
system.ruby.delayHist::stdev                 2.028695                       # delay histogram for all message
system.ruby.delayHist                    |    10166068     93.09%     93.09% |      754217      6.91%    100.00% |           7      0.00%    100.00% |           0      0.00%    100.00% |           0      0.00%    100.00% |           0      0.00%    100.00% |           1      0.00%    100.00% |           0      0.00%    100.00% |           0      0.00%    100.00% |           0      0.00%    100.00% # delay histogram for all message
system.ruby.delayHist::total                 10920293                       # delay histogram for all message
system.ruby.outstanding_req_hist::bucket_size            1                      
system.ruby.outstanding_req_hist::max_bucket            9                      
system.ruby.outstanding_req_hist::samples    144023998                      
system.ruby.outstanding_req_hist::mean       1.000109                      
system.ruby.outstanding_req_hist::gmean      1.000076                      
system.ruby.outstanding_req_hist::stdev      0.010455                      
system.ruby.outstanding_req_hist         |           0      0.00%      0.00% |   144008253     99.99%     99.99% |       15745      0.01%    100.00% |           0      0.00%    100.00% |           0      0.00%    100.00% |           0      0.00%    100.00% |           0      0.00%    100.00% |           0      0.00%    100.00% |           0      0.00%    100.00% |           0      0.00%    100.00%
system.ruby.outstanding_req_hist::total     144023998                      
system.ruby.latency_hist::bucket_size             256                      
system.ruby.latency_hist::max_bucket             2559                      
system.ruby.latency_hist::samples           144023997                      
system.ruby.latency_hist::mean               3.772928                      
system.ruby.latency_hist::gmean              3.118879                      
system.ruby.latency_hist::stdev             11.109107                      
system.ruby.latency_hist                 |   143985695     99.97%     99.97% |       24660      0.02%     99.99% |       12169      0.01%    100.00% |        1049      0.00%    100.00% |         364      0.00%    100.00% |          50      0.00%    100.00% |           9      0.00%    100.00% |           1      0.00%    100.00% |           0      0.00%    100.00% |           0      0.00%    100.00%
system.ruby.latency_hist::total             144023997                      
system.ruby.hit_latency_hist::bucket_size            1                      
system.ruby.hit_latency_hist::max_bucket            9                      
system.ruby.hit_latency_hist::samples       141606765                      
system.ruby.hit_latency_hist::mean                  3                      
system.ruby.hit_latency_hist::gmean          3.000000                      
system.ruby.hit_latency_hist             |           0      0.00%      0.00% |           0      0.00%      0.00% |           0      0.00%      0.00% |   141606765    100.00%    100.00% |           0      0.00%    100.00% |           0      0.00%    100.00% |           0      0.00%    100.00% |           0      0.00%    100.00% |           0      0.00%    100.00% |           0      0.00%    100.00%
system.ruby.hit_latency_hist::total         141606765                      
system.ruby.miss_latency_hist::bucket_size          256                      
system.ruby.miss_latency_hist::max_bucket         2559                      
system.ruby.miss_latency_hist::samples        2417232                      
system.ruby.miss_latency_hist::mean         49.052774                      
system.ruby.miss_latency_hist::gmean        30.388332                      
system.ruby.miss_latency_hist::stdev        72.580389                      
system.ruby.miss_latency_hist            |     2378930     98.42%     98.42% |       24660      1.02%     99.44% |       12169      0.50%     99.94% |        1049      0.04%     99.98% |         364      0.02%    100.00% |          50      0.00%    100.00% |           9      0.00%    100.00% |           1      0.00%    100.00% |           0      0.00%    100.00% |           0      0.00%    100.00%
system.ruby.miss_latency_hist::total          2417232                      
system.ruby.l1_cntrl0.L1Dcache.demand_hits     23059949                       # Number of cache demand hits
system.ruby.l1_cntrl0.L1Dcache.demand_misses      1677041                       # Number of cache demand misses
system.ruby.l1_cntrl0.L1Dcache.demand_accesses     24736990                       # Number of cache demand accesses
system.ruby.l1_cntrl0.L1Icache.demand_hits    118546816                       # Number of cache demand hits
system.ruby.l1_cntrl0.L1Icache.demand_misses       740191                       # Number of cache demand misses
system.ruby.l1_cntrl0.L1Icache.demand_accesses    119287007                       # Number of cache demand accesses
system.ruby.l1_cntrl0.prefetcher.miss_observed            0                       # number of misses observed
system.ruby.l1_cntrl0.prefetcher.allocated_streams            0                       # number of streams allocated for prefetching
system.ruby.l1_cntrl0.prefetcher.prefetches_requested            0                       # number of prefetch requests made
system.ruby.l1_cntrl0.prefetcher.prefetches_accepted            0                       # number of prefetch requests accepted
system.ruby.l1_cntrl0.prefetcher.dropped_prefetches            0                       # number of prefetch requests dropped
system.ruby.l1_cntrl0.prefetcher.hits               0                       # number of prefetched blocks accessed
system.ruby.l1_cntrl0.prefetcher.partial_hits            0                       # number of misses observed for a block being prefetched
system.ruby.l1_cntrl0.prefetcher.pages_crossed            0                       # number of prefetches across pages
system.ruby.l1_cntrl0.prefetcher.misses_on_prefetched_blocks            0                       # number of misses for blocks that were prefetched, yet missed
system.ruby.l1_cntrl0.fully_busy_cycles             8                       # cycles for which number of transistions == max transitions
system.ruby.l2_cntrl0.L2cache.demand_hits      1861223                       # Number of cache demand hits
system.ruby.l2_cntrl0.L2cache.demand_misses       556009                       # Number of cache demand misses
system.ruby.l2_cntrl0.L2cache.demand_accesses      2417232                       # Number of cache demand accesses
system.ruby.memctrl_clk_domain.clock             1500                       # Clock period in ticks
system.ruby.network.routers0.percent_links_utilized     0.082578                      
system.ruby.network.routers0.msg_count.Control::0      2417232                      
system.ruby.network.routers0.msg_count.Request_Control::2         4189                      
system.ruby.network.routers0.msg_count.Response_Data::1      2417232                      
system.ruby.network.routers0.msg_count.Response_Control::1      1679291                      
system.ruby.network.routers0.msg_count.Response_Control::2      1677036                      
system.ruby.network.routers0.msg_count.Writeback_Data::0       754179                      
system.ruby.network.routers0.msg_count.Writeback_Data::1          442                      
system.ruby.network.routers0.msg_count.Writeback_Control::0       921365                      
system.ruby.network.routers0.msg_bytes.Control::0     19337856                      
system.ruby.network.routers0.msg_bytes.Request_Control::2        33512                      
system.ruby.network.routers0.msg_bytes.Response_Data::1    174040704                      
system.ruby.network.routers0.msg_bytes.Response_Control::1     13434328                      
system.ruby.network.routers0.msg_bytes.Response_Control::2     13416288                      
system.ruby.network.routers0.msg_bytes.Writeback_Data::0     54300888                      
system.ruby.network.routers0.msg_bytes.Writeback_Data::1        31824                      
system.ruby.network.routers0.msg_bytes.Writeback_Control::0      7370920                      
system.ruby.network.routers1.percent_links_utilized     0.106799                      
system.ruby.network.routers1.msg_count.Control::0      2973241                      
system.ruby.network.routers1.msg_count.Request_Control::2         4189                      
system.ruby.network.routers1.msg_count.Response_Data::1      3447441                      
system.ruby.network.routers1.msg_count.Response_Control::1      2189574                      
system.ruby.network.routers1.msg_count.Response_Control::2      1677036                      
system.ruby.network.routers1.msg_count.Writeback_Data::0       754179                      
system.ruby.network.routers1.msg_count.Writeback_Data::1          442                      
system.ruby.network.routers1.msg_count.Writeback_Control::0       921365                      
system.ruby.network.routers1.msg_bytes.Control::0     23785928                      
system.ruby.network.routers1.msg_bytes.Request_Control::2        33512                      
system.ruby.network.routers1.msg_bytes.Response_Data::1    248215752                      
system.ruby.network.routers1.msg_bytes.Response_Control::1     17516592                      
system.ruby.network.routers1.msg_bytes.Response_Control::2     13416288                      
system.ruby.network.routers1.msg_bytes.Writeback_Data::0     54300888                      
system.ruby.network.routers1.msg_bytes.Writeback_Data::1        31824                      
system.ruby.network.routers1.msg_bytes.Writeback_Control::0      7370920                      
system.ruby.network.routers2.percent_links_utilized     0.024441                      
system.ruby.network.routers2.msg_count.Control::0       556009                      
system.ruby.network.routers2.msg_count.Response_Data::1      1030963                      
system.ruby.network.routers2.msg_count.Response_Control::1       510283                      
system.ruby.network.routers2.msg_count.Writeback_Control::0        43874                      
system.ruby.network.routers2.msg_count.Writeback_Control::1        43120                      
system.ruby.network.routers2.msg_bytes.Control::0      4448072                      
system.ruby.network.routers2.msg_bytes.Response_Data::1     74229336                      
system.ruby.network.routers2.msg_bytes.Response_Control::1      4082264                      
system.ruby.network.routers2.msg_bytes.Writeback_Control::0       350992                      
system.ruby.network.routers2.msg_bytes.Writeback_Control::1       344960                      
system.ruby.network.routers3.percent_links_utilized     0.000220                      
system.ruby.network.routers3.msg_count.Response_Data::1          754                      
system.ruby.network.routers3.msg_count.Writeback_Control::0        43874                      
system.ruby.network.routers3.msg_count.Writeback_Control::1        43120                      
system.ruby.network.routers3.msg_bytes.Response_Data::1        54288                      
system.ruby.network.routers3.msg_bytes.Writeback_Control::0       350992                      
system.ruby.network.routers3.msg_bytes.Writeback_Control::1       344960                      
system.ruby.network.routers4.percent_links_utilized            0                      
system.ruby.network.routers5.percent_links_utilized     0.042807                      
system.ruby.network.routers5.msg_count.Control::0      2973241                      
system.ruby.network.routers5.msg_count.Request_Control::2         4189                      
system.ruby.network.routers5.msg_count.Response_Data::1      3448195                      
system.ruby.network.routers5.msg_count.Response_Control::1      2189574                      
system.ruby.network.routers5.msg_count.Response_Control::2      1677036                      
system.ruby.network.routers5.msg_count.Writeback_Data::0       754179                      
system.ruby.network.routers5.msg_count.Writeback_Data::1          442                      
system.ruby.network.routers5.msg_count.Writeback_Control::0       965239                      
system.ruby.network.routers5.msg_count.Writeback_Control::1        43120                      
system.ruby.network.routers5.msg_bytes.Control::0     23785928                      
system.ruby.network.routers5.msg_bytes.Request_Control::2        33512                      
system.ruby.network.routers5.msg_bytes.Response_Data::1    248270040                      
system.ruby.network.routers5.msg_bytes.Response_Control::1     17516592                      
system.ruby.network.routers5.msg_bytes.Response_Control::2     13416288                      
system.ruby.network.routers5.msg_bytes.Writeback_Data::0     54300888                      
system.ruby.network.routers5.msg_bytes.Writeback_Data::1        31824                      
system.ruby.network.routers5.msg_bytes.Writeback_Control::0      7721912                      
system.ruby.network.routers5.msg_bytes.Writeback_Control::1       344960                      
system.ruby.network.msg_count.Control         8919723                      
system.ruby.network.msg_count.Request_Control        12567                      
system.ruby.network.msg_count.Response_Data     10344585                      
system.ruby.network.msg_count.Response_Control     11599830                      
system.ruby.network.msg_count.Writeback_Data      2263863                      
system.ruby.network.msg_count.Writeback_Control      3025077                      
system.ruby.network.msg_byte.Control         71357784                      
system.ruby.network.msg_byte.Request_Control       100536                      
system.ruby.network.msg_byte.Response_Data    744810120                      
system.ruby.network.msg_byte.Response_Control     92798640                      
system.ruby.network.msg_byte.Writeback_Data    162998136                      
system.ruby.network.msg_byte.Writeback_Control     24200616                      
system.ruby.network.routers0.throttle0.link_utilization     0.109811                      
system.ruby.network.routers0.throttle0.msg_count.Request_Control::2         4189                      
system.ruby.network.routers0.throttle0.msg_count.Response_Data::1      2417232                      
system.ruby.network.routers0.throttle0.msg_count.Response_Control::1      1675544                      
system.ruby.network.routers0.throttle0.msg_bytes.Request_Control::2        33512                      
system.ruby.network.routers0.throttle0.msg_bytes.Response_Data::1    174040704                      
system.ruby.network.routers0.throttle0.msg_bytes.Response_Control::1     13404352                      
system.ruby.network.routers0.throttle1.link_utilization     0.055344                      
system.ruby.network.routers0.throttle1.msg_count.Control::0      2417232                      
system.ruby.network.routers0.throttle1.msg_count.Response_Control::1         3747                      
system.ruby.network.routers0.throttle1.msg_count.Response_Control::2      1677036                      
system.ruby.network.routers0.throttle1.msg_count.Writeback_Data::0       754179                      
system.ruby.network.routers0.throttle1.msg_count.Writeback_Data::1          442                      
system.ruby.network.routers0.throttle1.msg_count.Writeback_Control::0       921365                      
system.ruby.network.routers0.throttle1.msg_bytes.Control::0     19337856                      
system.ruby.network.routers0.throttle1.msg_bytes.Response_Control::1        29976                      
system.ruby.network.routers0.throttle1.msg_bytes.Response_Control::2     13416288                      
system.ruby.network.routers0.throttle1.msg_bytes.Writeback_Data::0     54300888                      
system.ruby.network.routers0.throttle1.msg_bytes.Writeback_Data::1        31824                      
system.ruby.network.routers0.throttle1.msg_bytes.Writeback_Control::0      7370920                      
system.ruby.network.routers1.throttle0.link_utilization     0.081104                      
system.ruby.network.routers1.throttle0.msg_count.Control::0      2417232                      
system.ruby.network.routers1.throttle0.msg_count.Response_Data::1       556009                      
system.ruby.network.routers1.throttle0.msg_count.Response_Control::1       497065                      
system.ruby.network.routers1.throttle0.msg_count.Response_Control::2      1677036                      
system.ruby.network.routers1.throttle0.msg_count.Writeback_Data::0       754179                      
system.ruby.network.routers1.throttle0.msg_count.Writeback_Data::1          442                      
system.ruby.network.routers1.throttle0.msg_count.Writeback_Control::0       921365                      
system.ruby.network.routers1.throttle0.msg_bytes.Control::0     19337856                      
system.ruby.network.routers1.throttle0.msg_bytes.Response_Data::1     40032648                      
system.ruby.network.routers1.throttle0.msg_bytes.Response_Control::1      3976520                      
system.ruby.network.routers1.throttle0.msg_bytes.Response_Control::2     13416288                      
system.ruby.network.routers1.throttle0.msg_bytes.Writeback_Data::0     54300888                      
system.ruby.network.routers1.throttle0.msg_bytes.Writeback_Data::1        31824                      
system.ruby.network.routers1.throttle0.msg_bytes.Writeback_Control::0      7370920                      
system.ruby.network.routers1.throttle1.link_utilization     0.132494                      
system.ruby.network.routers1.throttle1.msg_count.Control::0       556009                      
system.ruby.network.routers1.throttle1.msg_count.Request_Control::2         4189                      
system.ruby.network.routers1.throttle1.msg_count.Response_Data::1      2891432                      
system.ruby.network.routers1.throttle1.msg_count.Response_Control::1      1692509                      
system.ruby.network.routers1.throttle1.msg_bytes.Control::0      4448072                      
system.ruby.network.routers1.throttle1.msg_bytes.Request_Control::2        33512                      
system.ruby.network.routers1.throttle1.msg_bytes.Response_Data::1    208183104                      
system.ruby.network.routers1.throttle1.msg_bytes.Response_Control::1     13540072                      
system.ruby.network.routers2.throttle0.link_utilization     0.022889                      
system.ruby.network.routers2.throttle0.msg_count.Control::0       556009                      
system.ruby.network.routers2.throttle0.msg_count.Response_Data::1       474200                      
system.ruby.network.routers2.throttle0.msg_count.Response_Control::1        16965                      
system.ruby.network.routers2.throttle0.msg_count.Writeback_Control::0        43874                      
system.ruby.network.routers2.throttle0.msg_bytes.Control::0      4448072                      
system.ruby.network.routers2.throttle0.msg_bytes.Response_Data::1     34142400                      
system.ruby.network.routers2.throttle0.msg_bytes.Response_Control::1       135720                      
system.ruby.network.routers2.throttle0.msg_bytes.Writeback_Control::0       350992                      
system.ruby.network.routers2.throttle1.link_utilization     0.025994                      
system.ruby.network.routers2.throttle1.msg_count.Response_Data::1       556763                      
system.ruby.network.routers2.throttle1.msg_count.Response_Control::1       493318                      
system.ruby.network.routers2.throttle1.msg_count.Writeback_Control::1        43120                      
system.ruby.network.routers2.throttle1.msg_bytes.Response_Data::1     40086936                      
system.ruby.network.routers2.throttle1.msg_bytes.Response_Control::1      3946544                      
system.ruby.network.routers2.throttle1.msg_bytes.Writeback_Control::1       344960                      
system.ruby.network.routers3.throttle0.link_utilization     0.000234                      
system.ruby.network.routers3.throttle0.msg_count.Response_Data::1          754                      
system.ruby.network.routers3.throttle0.msg_count.Writeback_Control::1        43120                      
system.ruby.network.routers3.throttle0.msg_bytes.Response_Data::1        54288                      
system.ruby.network.routers3.throttle0.msg_bytes.Writeback_Control::1       344960                      
system.ruby.network.routers3.throttle1.link_utilization     0.000206                      
system.ruby.network.routers3.throttle1.msg_count.Writeback_Control::0        43874                      
system.ruby.network.routers3.throttle1.msg_bytes.Writeback_Control::0       350992                      
system.ruby.network.routers4.throttle0.link_utilization            0                      
system.ruby.network.routers4.throttle1.link_utilization            0                      
system.ruby.network.routers5.throttle0.link_utilization     0.109811                      
system.ruby.network.routers5.throttle0.msg_count.Request_Control::2         4189                      
system.ruby.network.routers5.throttle0.msg_count.Response_Data::1      2417232                      
system.ruby.network.routers5.throttle0.msg_count.Response_Control::1      1675544                      
system.ruby.network.routers5.throttle0.msg_bytes.Request_Control::2        33512                      
system.ruby.network.routers5.throttle0.msg_bytes.Response_Data::1    174040704                      
system.ruby.network.routers5.throttle0.msg_bytes.Response_Control::1     13404352                      
system.ruby.network.routers5.throttle1.link_utilization     0.081104                      
system.ruby.network.routers5.throttle1.msg_count.Control::0      2417232                      
system.ruby.network.routers5.throttle1.msg_count.Response_Data::1       556009                      
system.ruby.network.routers5.throttle1.msg_count.Response_Control::1       497065                      
system.ruby.network.routers5.throttle1.msg_count.Response_Control::2      1677036                      
system.ruby.network.routers5.throttle1.msg_count.Writeback_Data::0       754179                      
system.ruby.network.routers5.throttle1.msg_count.Writeback_Data::1          442                      
system.ruby.network.routers5.throttle1.msg_count.Writeback_Control::0       921365                      
system.ruby.network.routers5.throttle1.msg_bytes.Control::0     19337856                      
system.ruby.network.routers5.throttle1.msg_bytes.Response_Data::1     40032648                      
system.ruby.network.routers5.throttle1.msg_bytes.Response_Control::1      3976520                      
system.ruby.network.routers5.throttle1.msg_bytes.Response_Control::2     13416288                      
system.ruby.network.routers5.throttle1.msg_bytes.Writeback_Data::0     54300888                      
system.ruby.network.routers5.throttle1.msg_bytes.Writeback_Data::1        31824                      
system.ruby.network.routers5.throttle1.msg_bytes.Writeback_Control::0      7370920                      
system.ruby.network.routers5.throttle2.link_utilization     0.022889                      
[...]
system.ruby.LD.miss_latency_hist::max_bucket         2559                      
system.ruby.LD.miss_latency_hist::samples      4168022                      
system.ruby.LD.miss_latency_hist::mean      86.861647                      
system.ruby.LD.miss_latency_hist::gmean     52.446768                      
system.ruby.LD.miss_latency_hist::stdev     94.217724                      
system.ruby.LD.miss_latency_hist         |     4052797     97.24%     97.24% |       77055      1.85%     99.08% |       35001      0.84%     99.92% |        1528      0.04%     99.96% |        1103      0.03%     99.99% |         333      0.01%    100.00% |         168      0.00%    100.00% |          22      0.00%    100.00% |          13      0.00%    100.00% |           2      0.00%    100.00%
system.ruby.LD.miss_latency_hist::total       4168022                      
system.ruby.ST.latency_hist::bucket_size          256                      
system.ruby.ST.latency_hist::max_bucket          2559                      
system.ruby.ST.latency_hist::samples          8752771                      
system.ruby.ST.latency_hist::mean            3.749078                      
system.ruby.ST.latency_hist::gmean           3.065290                      
system.ruby.ST.latency_hist::stdev          12.197536                      
system.ruby.ST.latency_hist              |     8750494     99.97%     99.97% |        1145      0.01%     99.99% |        1028      0.01%    100.00% |          53      0.00%    100.00% |          39      0.00%    100.00% |          10      0.00%    100.00% |           2      0.00%    100.00% |           0      0.00%    100.00% |           0      0.00%    100.00% |           0      0.00%    100.00%
system.ruby.ST.latency_hist::total            8752771                      
system.ruby.ST.hit_latency_hist::bucket_size            1                      
system.ruby.ST.hit_latency_hist::max_bucket            9                      
system.ruby.ST.hit_latency_hist::samples      8700182                      
system.ruby.ST.hit_latency_hist::mean               3                      
system.ruby.ST.hit_latency_hist::gmean       3.000000                      
system.ruby.ST.hit_latency_hist          |           0      0.00%      0.00% |           0      0.00%      0.00% |           0      0.00%      0.00% |     8700182    100.00%    100.00% |           0      0.00%    100.00% |           0      0.00%    100.00% |           0      0.00%    100.00% |           0      0.00%    100.00% |           0      0.00%    100.00% |           0      0.00%    100.00%
system.ruby.ST.hit_latency_hist::total        8700182                      
system.ruby.ST.miss_latency_hist::bucket_size          256                      
system.ruby.ST.miss_latency_hist::max_bucket         2559                      
system.ruby.ST.miss_latency_hist::samples        52589                      
system.ruby.ST.miss_latency_hist::mean     127.674495                      
system.ruby.ST.miss_latency_hist::gmean    107.985249                      
system.ruby.ST.miss_latency_hist::stdev     96.500558                      
system.ruby.ST.miss_latency_hist         |       50312     95.67%     95.67% |        1145      2.18%     97.85% |        1028      1.95%     99.80% |          53      0.10%     99.90% |          39      0.07%     99.98% |          10      0.02%    100.00% |           2      0.00%    100.00% |           0      0.00%    100.00% |           0      0.00%    100.00% |           0      0.00%    100.00%
system.ruby.ST.miss_latency_hist::total         52589                      
system.ruby.IFETCH.latency_hist::bucket_size          128                      
system.ruby.IFETCH.latency_hist::max_bucket         1279                      
system.ruby.IFETCH.latency_hist::samples    116413505                      
system.ruby.IFETCH.latency_hist::mean        3.013151                      
system.ruby.IFETCH.latency_hist::gmean       3.001168                      
system.ruby.IFETCH.latency_hist::stdev       1.565814                      
system.ruby.IFETCH.latency_hist          |   116408154    100.00%    100.00% |        4900      0.00%    100.00% |          66      0.00%    100.00% |         226      0.00%    100.00% |         117      0.00%    100.00% |          34      0.00%    100.00% |           1      0.00%    100.00% |           2      0.00%    100.00% |           4      0.00%    100.00% |           1      0.00%    100.00%
system.ruby.IFETCH.latency_hist::total      116413505                      
system.ruby.IFETCH.hit_latency_hist::bucket_size            1                      
system.ruby.IFETCH.hit_latency_hist::max_bucket            9                      
system.ruby.IFETCH.hit_latency_hist::samples    116399661                      
system.ruby.IFETCH.hit_latency_hist::mean            3                      
system.ruby.IFETCH.hit_latency_hist::gmean     3.000000                      
system.ruby.IFETCH.hit_latency_hist      |           0      0.00%      0.00% |           0      0.00%      0.00% |           0      0.00%      0.00% |   116399661    100.00%    100.00% |           0      0.00%    100.00% |           0      0.00%    100.00% |           0      0.00%    100.00% |           0      0.00%    100.00% |           0      0.00%    100.00% |           0      0.00%    100.00%
system.ruby.IFETCH.hit_latency_hist::total    116399661                      
system.ruby.IFETCH.miss_latency_hist::bucket_size          128                      
system.ruby.IFETCH.miss_latency_hist::max_bucket         1279                      
system.ruby.IFETCH.miss_latency_hist::samples        13844                      
system.ruby.IFETCH.miss_latency_hist::mean   113.586969                      
system.ruby.IFETCH.miss_latency_hist::gmean    79.156893                      
system.ruby.IFETCH.miss_latency_hist::stdev    91.593816                      
system.ruby.IFETCH.miss_latency_hist     |        8493     61.35%     61.35% |        4900     35.39%     96.74% |          66      0.48%     97.22% |         226      1.63%     98.85% |         117      0.85%     99.70% |          34      0.25%     99.94% |           1      0.01%     99.95% |           2      0.01%     99.96% |           4      0.03%     99.99% |           1      0.01%    100.00%
system.ruby.IFETCH.miss_latency_hist::total        13844                      
system.ruby.RMW_Read.latency_hist::bucket_size           64                      
system.ruby.RMW_Read.latency_hist::max_bucket          639                      
system.ruby.RMW_Read.latency_hist::samples       736692                      
system.ruby.RMW_Read.latency_hist::mean      3.112211                      
system.ruby.RMW_Read.latency_hist::gmean     3.022818                      
system.ruby.RMW_Read.latency_hist::stdev     3.320467                      
system.ruby.RMW_Read.latency_hist        |      736419     99.96%     99.96% |          82      0.01%     99.97% |         178      0.02%    100.00% |           1      0.00%    100.00% |           2      0.00%    100.00% |           3      0.00%    100.00% |           4      0.00%    100.00% |           1      0.00%    100.00% |           2      0.00%    100.00% |           0      0.00%    100.00%
system.ruby.RMW_Read.latency_hist::total       736692                      
system.ruby.RMW_Read.hit_latency_hist::bucket_size            1                      
system.ruby.RMW_Read.hit_latency_hist::max_bucket            9                      
system.ruby.RMW_Read.hit_latency_hist::samples       734048                      
system.ruby.RMW_Read.hit_latency_hist::mean            3                      
system.ruby.RMW_Read.hit_latency_hist::gmean     3.000000                      
system.ruby.RMW_Read.hit_latency_hist    |           0      0.00%      0.00% |           0      0.00%      0.00% |           0      0.00%      0.00% |      734048    100.00%    100.00% |           0      0.00%    100.00% |           0      0.00%    100.00% |           0      0.00%    100.00% |           0      0.00%    100.00% |           0      0.00%    100.00% |           0      0.00%    100.00%
system.ruby.RMW_Read.hit_latency_hist::total       734048                      
system.ruby.RMW_Read.miss_latency_hist::bucket_size           64                      
system.ruby.RMW_Read.miss_latency_hist::max_bucket          639                      
system.ruby.RMW_Read.miss_latency_hist::samples         2644                      
system.ruby.RMW_Read.miss_latency_hist::mean    34.265129                      
system.ruby.RMW_Read.miss_latency_hist::gmean    24.775803                      
system.ruby.RMW_Read.miss_latency_hist::stdev    45.812665                      
system.ruby.RMW_Read.miss_latency_hist   |        2371     89.67%     89.67% |          82      3.10%     92.78% |         178      6.73%     99.51% |           1      0.04%     99.55% |           2      0.08%     99.62% |           3      0.11%     99.74% |           4      0.15%     99.89% |           1      0.04%     99.92% |           2      0.08%    100.00% |           0      0.00%    100.00%
system.ruby.RMW_Read.miss_latency_hist::total         2644                      
system.ruby.Locked_RMW_Read.latency_hist::bucket_size          256                      
system.ruby.Locked_RMW_Read.latency_hist::max_bucket         2559                      
system.ruby.Locked_RMW_Read.latency_hist::samples      2262374                      
system.ruby.Locked_RMW_Read.latency_hist::mean    71.287384                      
system.ruby.Locked_RMW_Read.latency_hist::gmean    19.685603                      
system.ruby.Locked_RMW_Read.latency_hist::stdev    93.661288                      
system.ruby.Locked_RMW_Read.latency_hist |     2214382     97.88%     97.88% |       34116      1.51%     99.39% |       13387      0.59%     99.98% |         250      0.01%     99.99% |         228      0.01%    100.00% |          11      0.00%    100.00% |           0      0.00%    100.00% |           0      0.00%    100.00% |           0      0.00%    100.00% |           0      0.00%    100.00%
system.ruby.Locked_RMW_Read.latency_hist::total      2262374                      
system.ruby.Locked_RMW_Read.hit_latency_hist::bucket_size            1                      
system.ruby.Locked_RMW_Read.hit_latency_hist::max_bucket            9                      
system.ruby.Locked_RMW_Read.hit_latency_hist::samples       994747                      
system.ruby.Locked_RMW_Read.hit_latency_hist::mean            3                      
system.ruby.Locked_RMW_Read.hit_latency_hist::gmean     3.000000                      
system.ruby.Locked_RMW_Read.hit_latency_hist |           0      0.00%      0.00% |           0      0.00%      0.00% |           0      0.00%      0.00% |      994747    100.00%    100.00% |           0      0.00%    100.00% |           0      0.00%    100.00% |           0      0.00%    100.00% |           0      0.00%    100.00% |           0      0.00%    100.00% |           0      0.00%    100.00%
system.ruby.Locked_RMW_Read.hit_latency_hist::total       994747                      
system.ruby.Locked_RMW_Read.miss_latency_hist::bucket_size          256                      
system.ruby.Locked_RMW_Read.miss_latency_hist::max_bucket         2559                      
system.ruby.Locked_RMW_Read.miss_latency_hist::samples      1267627                      
system.ruby.Locked_RMW_Read.miss_latency_hist::mean   124.874653                      
system.ruby.Locked_RMW_Read.miss_latency_hist::gmean    86.158082                      
system.ruby.Locked_RMW_Read.miss_latency_hist::stdev    95.527566                      
system.ruby.Locked_RMW_Read.miss_latency_hist |     1219635     96.21%     96.21% |       34116      2.69%     98.91% |       13387      1.06%     99.96% |         250      0.02%     99.98% |         228      0.02%    100.00% |          11      0.00%    100.00% |           0      0.00%    100.00% |           0      0.00%    100.00% |           0      0.00%    100.00% |           0      0.00%    100.00%
system.ruby.Locked_RMW_Read.miss_latency_hist::total      1267627                      
system.ruby.Locked_RMW_Write.latency_hist::bucket_size            1                      
system.ruby.Locked_RMW_Write.latency_hist::max_bucket            9                      
system.ruby.Locked_RMW_Write.latency_hist::samples      2262374                      
system.ruby.Locked_RMW_Write.latency_hist::mean            3                      
system.ruby.Locked_RMW_Write.latency_hist::gmean     3.000000                      
system.ruby.Locked_RMW_Write.latency_hist |           0      0.00%      0.00% |           0      0.00%      0.00% |           0      0.00%      0.00% |     2262374    100.00%    100.00% |           0      0.00%    100.00% |           0      0.00%    100.00% |           0      0.00%    100.00% |           0      0.00%    100.00% |           0      0.00%    100.00% |           0      0.00%    100.00%
system.ruby.Locked_RMW_Write.latency_hist::total      2262374                      
system.ruby.Locked_RMW_Write.hit_latency_hist::bucket_size            1                      
system.ruby.Locked_RMW_Write.hit_latency_hist::max_bucket            9                      
system.ruby.Locked_RMW_Write.hit_latency_hist::samples      2262374                      
system.ruby.Locked_RMW_Write.hit_latency_hist::mean            3                      
system.ruby.Locked_RMW_Write.hit_latency_hist::gmean     3.000000                      
system.ruby.Locked_RMW_Write.hit_latency_hist |           0      0.00%      0.00% |           0      0.00%      0.00% |           0      0.00%      0.00% |     2262374    100.00%    100.00% |           0      0.00%    100.00% |           0      0.00%    100.00% |           0      0.00%    100.00% |           0      0.00%    100.00% |           0      0.00%    100.00% |           0      0.00%    100.00%
system.ruby.Locked_RMW_Write.hit_latency_hist::total      2262374                      
system.ruby.Directory_Controller.Fetch        2919821      0.00%      0.00%
system.ruby.Directory_Controller.Data         1731790      0.00%      0.00%
system.ruby.Directory_Controller.Memory_Data      2919821      0.00%      0.00%
system.ruby.Directory_Controller.Memory_Ack      1731790      0.00%      0.00%
system.ruby.Directory_Controller.CleanReplacement      1188031      0.00%      0.00%
system.ruby.Directory_Controller.I.Fetch      2919821      0.00%      0.00%
system.ruby.Directory_Controller.M.Data       1731790      0.00%      0.00%
system.ruby.Directory_Controller.M.CleanReplacement      1188031      0.00%      0.00%
system.ruby.Directory_Controller.IM.Memory_Data      2919821      0.00%      0.00%
system.ruby.Directory_Controller.MI.Memory_Ack      1731790      0.00%      0.00%
system.ruby.L1Cache_Controller.Load          32436042      0.00%      0.00%
system.ruby.L1Cache_Controller.Ifetch       116413505      0.00%      0.00%
system.ruby.L1Cache_Controller.Store         14014211      0.00%      0.00%
system.ruby.L1Cache_Controller.Inv               7832      0.00%      0.00%
system.ruby.L1Cache_Controller.L1_Replacement      5498434      0.00%      0.00%
system.ruby.L1Cache_Controller.Data_Exclusive      4168022      0.00%      0.00%
system.ruby.L1Cache_Controller.Data_all_Acks      1336704      0.00%      0.00%
system.ruby.L1Cache_Controller.WB_Ack         5490731      0.00%      0.00%
system.ruby.L1Cache_Controller.NP.Load        4167904      0.00%      0.00%
system.ruby.L1Cache_Controller.NP.Ifetch         7699      0.00%      0.00%
system.ruby.L1Cache_Controller.NP.Store       1322831      0.00%      0.00%
system.ruby.L1Cache_Controller.NP.Inv             815      0.00%      0.00%
system.ruby.L1Cache_Controller.I.Load             118      0.00%      0.00%
system.ruby.L1Cache_Controller.I.Ifetch          6145      0.00%      0.00%
system.ruby.L1Cache_Controller.I.Store             29      0.00%      0.00%
system.ruby.L1Cache_Controller.I.L1_Replacement          886      0.00%      0.00%
system.ruby.L1Cache_Controller.S.Ifetch     116399661      0.00%      0.00%
system.ruby.L1Cache_Controller.S.Inv             6866      0.00%      0.00%
system.ruby.L1Cache_Controller.S.L1_Replacement         6817      0.00%      0.00%
system.ruby.L1Cache_Controller.E.Load        20222791      0.00%      0.00%
system.ruby.L1Cache_Controller.E.Store         918044      0.00%      0.00%
system.ruby.L1Cache_Controller.E.Inv              100      0.00%      0.00%
system.ruby.L1Cache_Controller.E.L1_Replacement      3250269      0.00%      0.00%
system.ruby.L1Cache_Controller.M.Load         8045229      0.00%      0.00%
system.ruby.L1Cache_Controller.M.Store       11773307      0.00%      0.00%
system.ruby.L1Cache_Controller.M.Inv               51      0.00%      0.00%
system.ruby.L1Cache_Controller.M.L1_Replacement      2240462      0.00%      0.00%
system.ruby.L1Cache_Controller.IS.Data_Exclusive      4168022      0.00%      0.00%
system.ruby.L1Cache_Controller.IS.Data_all_Acks        13844      0.00%      0.00%
system.ruby.L1Cache_Controller.IM.Data_all_Acks      1322860      0.00%      0.00%
system.ruby.L1Cache_Controller.M_I.WB_Ack      5490731      0.00%      0.00%
system.ruby.L2Cache_Controller.L1_GET_INSTR        13844      0.00%      0.00%
system.ruby.L2Cache_Controller.L1_GETS        4168022      0.00%      0.00%
system.ruby.L2Cache_Controller.L1_GETX        1322860      0.00%      0.00%
system.ruby.L2Cache_Controller.L1_PUTX        5490731      0.00%      0.00%
system.ruby.L2Cache_Controller.L2_Replacement      1731759      0.00%      0.00%
system.ruby.L2Cache_Controller.L2_Replacement_clean      1188062      0.00%      0.00%
system.ruby.L2Cache_Controller.Mem_Data       2919821      0.00%      0.00%
system.ruby.L2Cache_Controller.Mem_Ack        2919821      0.00%      0.00%
system.ruby.L2Cache_Controller.WB_Data             51      0.00%      0.00%
system.ruby.L2Cache_Controller.Ack_all           7781      0.00%      0.00%
system.ruby.L2Cache_Controller.Exclusive_Unblock      5490882      0.00%      0.00%
system.ruby.L2Cache_Controller.NP.L1_GET_INSTR         9805      0.00%      0.00%
system.ruby.L2Cache_Controller.NP.L1_GETS      1974645      0.00%      0.00%
system.ruby.L2Cache_Controller.NP.L1_GETX       935371      0.00%      0.00%
system.ruby.L2Cache_Controller.SS.L1_GET_INSTR         4039      0.00%      0.00%
system.ruby.L2Cache_Controller.SS.L2_Replacement_clean         7681      0.00%      0.00%
system.ruby.L2Cache_Controller.M.L1_GETS      2193377      0.00%      0.00%
system.ruby.L2Cache_Controller.M.L1_GETX       387489      0.00%      0.00%
system.ruby.L2Cache_Controller.M.L2_Replacement      1731736      0.00%      0.00%
system.ruby.L2Cache_Controller.M.L2_Replacement_clean      1180253      0.00%      0.00%
system.ruby.L2Cache_Controller.MT.L1_PUTX      5490731      0.00%      0.00%
system.ruby.L2Cache_Controller.MT.L2_Replacement           23      0.00%      0.00%
system.ruby.L2Cache_Controller.MT.L2_Replacement_clean          128      0.00%      0.00%
system.ruby.L2Cache_Controller.M_I.Mem_Ack      2919821      0.00%      0.00%
system.ruby.L2Cache_Controller.MT_I.WB_Data           20      0.00%      0.00%
system.ruby.L2Cache_Controller.MT_I.Ack_all            3      0.00%      0.00%
system.ruby.L2Cache_Controller.MCT_I.WB_Data           31      0.00%      0.00%
system.ruby.L2Cache_Controller.MCT_I.Ack_all           97      0.00%      0.00%
system.ruby.L2Cache_Controller.I_I.Ack_all         7681      0.00%      0.00%
system.ruby.L2Cache_Controller.ISS.Mem_Data      1974645      0.00%      0.00%
system.ruby.L2Cache_Controller.IS.Mem_Data         9805      0.00%      0.00%
system.ruby.L2Cache_Controller.IM.Mem_Data       935371      0.00%      0.00%
system.ruby.L2Cache_Controller.MT_MB.Exclusive_Unblock      5490882      0.00%      0.00%

---------- End Simulation Statistics   ----------
