
---------- Begin Simulation Statistics ----------
sim_seconds                                  5.335306                       # Number of seconds simulated
sim_ticks                                5335306116000                       # Number of ticks simulated
final_tick                               5335306116000                       # Number of ticks from beginning of simulation (restored from checkpoints and never reset)
sim_freq                                 1000000000000                       # Frequency of simulated ticks
host_inst_rate                                 374104                       # Simulator instruction rate (inst/s)
host_op_rate                                   731479                       # Simulator op (including micro ops) rate (op/s)
host_tick_rate                            21144293639                       # Simulator tick rate (ticks/s)
host_mem_usage                                1125140                       # Number of bytes of host memory used
host_seconds                                   252.33                       # Real time elapsed on the host
sim_insts                                    94397100                       # Number of instructions simulated
sim_ops                                     184572897                       # Number of ops (including micro ops) simulated
system.voltage_domain.voltage                       1                       # Voltage in Volts
system.clk_domain.clock                          1000                       # Clock period in ticks
system.mem_ctrls.bytes_read::ruby.dir_cntrl0     35568064                       # Number of bytes read from this memory
system.mem_ctrls.bytes_read::total           35568064                       # Number of bytes read from this memory
system.mem_ctrls.bytes_written::ruby.dir_cntrl0     32899392                       # Number of bytes written to this memory
system.mem_ctrls.bytes_written::total        32899392                       # Number of bytes written to this memory
system.mem_ctrls.num_reads::ruby.dir_cntrl0       555751                       # Number of read requests responded to by this memory
system.mem_ctrls.num_reads::total              555751                       # Number of read requests responded to by this memory
system.mem_ctrls.num_writes::ruby.dir_cntrl0       514053                       # Number of write requests responded to by this memory
system.mem_ctrls.num_writes::total             514053                       # Number of write requests responded to by this memory
system.mem_ctrls.bw_read::ruby.dir_cntrl0      6666546                       # Total read bandwidth from this memory (bytes/s)
system.mem_ctrls.bw_read::total               6666546                       # Total read bandwidth from this memory (bytes/s)
system.mem_ctrls.bw_write::ruby.dir_cntrl0      6166355                       # Write bandwidth from this memory (bytes/s)
system.mem_ctrls.bw_write::total              6166355                       # Write bandwidth from this memory (bytes/s)
system.mem_ctrls.bw_total::ruby.dir_cntrl0     12832901                       # Total bandwidth to/from this memory (bytes/s)
system.mem_ctrls.bw_total::total             12832901                       # Total bandwidth to/from this memory (bytes/s)
system.mem_ctrls.readReqs                      555751                       # Number of read requests accepted
system.mem_ctrls.writeReqs                     514053                       # Number of write requests accepted
system.mem_ctrls.readBursts                    555751                       # Number of DRAM read bursts, including those serviced by the write queue
system.mem_ctrls.writeBursts                   514053                       # Number of DRAM write bursts, including those merged in the write queue
system.mem_ctrls.bytesReadDRAM               35565504                       # Total number of bytes read from DRAM
system.mem_ctrls.bytesReadWrQ                    2560                       # Total number of bytes read from write queue
system.mem_ctrls.bytesWritten                32897664                       # Total number of bytes written to DRAM
system.mem_ctrls.bytesReadSys                35568064                       # Total read bytes from the system interface side
system.mem_ctrls.bytesWrittenSys             32899392                       # Total written bytes from the system interface side
system.mem_ctrls.servicedByWrQ                     40                       # Number of DRAM read bursts serviced by the write queue
system.mem_ctrls.mergedWrBursts                     5                       # Number of DRAM write bursts merged with an existing one
system.mem_ctrls.neitherReadNorWriteReqs            0                       # Number of requests that are neither read nor write
system.mem_ctrls.perBankRdBursts::0             33869                       # Per bank write bursts
system.mem_ctrls.perBankRdBursts::1             34034                       # Per bank write bursts
system.mem_ctrls.perBankRdBursts::2             34204                       # Per bank write bursts
system.mem_ctrls.perBankRdBursts::3             34281                       # Per bank write bursts
system.mem_ctrls.perBankRdBursts::4             34814                       # Per bank write bursts
system.mem_ctrls.perBankRdBursts::5             34806                       # Per bank write bursts
system.mem_ctrls.perBankRdBursts::6             35426                       # Per bank write bursts
system.mem_ctrls.perBankRdBursts::7             35218                       # Per bank write bursts
system.mem_ctrls.perBankRdBursts::8             34966                       # Per bank write bursts
system.mem_ctrls.perBankRdBursts::9             34554                       # Per bank write bursts
system.mem_ctrls.perBankRdBursts::10            34773                       # Per bank write bursts
system.mem_ctrls.perBankRdBursts::11            35425                       # Per bank write bursts
system.mem_ctrls.perBankRdBursts::12            35423                       # Per bank write bursts
system.mem_ctrls.perBankRdBursts::13            35114                       # Per bank write bursts
system.mem_ctrls.perBankRdBursts::14            34465                       # Per bank write bursts
system.mem_ctrls.perBankRdBursts::15            34339                       # Per bank write bursts
system.mem_ctrls.perBankWrBursts::0             31641                       # Per bank write bursts
system.mem_ctrls.perBankWrBursts::1             31558                       # Per bank write bursts
system.mem_ctrls.perBankWrBursts::2             31775                       # Per bank write bursts
system.mem_ctrls.perBankWrBursts::3             32119                       # Per bank write bursts
system.mem_ctrls.perBankWrBursts::4             32438                       # Per bank write bursts
system.mem_ctrls.perBankWrBursts::5             32171                       # Per bank write bursts
system.mem_ctrls.perBankWrBursts::6             32598                       # Per bank write bursts
system.mem_ctrls.perBankWrBursts::7             32446                       # Per bank write bursts
system.mem_ctrls.perBankWrBursts::8             32085                       # Per bank write bursts
system.mem_ctrls.perBankWrBursts::9             31889                       # Per bank write bursts
system.mem_ctrls.perBankWrBursts::10            32273                       # Per bank write bursts
system.mem_ctrls.perBankWrBursts::11            32291                       # Per bank write bursts
system.mem_ctrls.perBankWrBursts::12            32636                       # Per bank write bursts
system.mem_ctrls.perBankWrBursts::13            32304                       # Per bank write bursts
system.mem_ctrls.perBankWrBursts::14            32007                       # Per bank write bursts
system.mem_ctrls.perBankWrBursts::15            31795                       # Per bank write bursts
system.mem_ctrls.numRdRetry                         0                       # Number of times read queue was full causing retry
system.mem_ctrls.numWrRetry                         0                       # Number of times write queue was full causing retry
system.mem_ctrls.totGap                  5335305963000                       # Total gap between requests
system.mem_ctrls.readPktSize::0                     0                       # Read request sizes (log2)
system.mem_ctrls.readPktSize::1                     0                       # Read request sizes (log2)
system.mem_ctrls.readPktSize::2                     0                       # Read request sizes (log2)
system.mem_ctrls.readPktSize::3                     0                       # Read request sizes (log2)
system.mem_ctrls.readPktSize::4                     0                       # Read request sizes (log2)
system.mem_ctrls.readPktSize::5                     0                       # Read request sizes (log2)
system.mem_ctrls.readPktSize::6                555751                       # Read request sizes (log2)
system.mem_ctrls.writePktSize::0                    0                       # Write request sizes (log2)
system.mem_ctrls.writePktSize::1                    0                       # Write request sizes (log2)
system.mem_ctrls.writePktSize::2                    0                       # Write request sizes (log2)
system.mem_ctrls.writePktSize::3                    0                       # Write request sizes (log2)
system.mem_ctrls.writePktSize::4                    0                       # Write request sizes (log2)
system.mem_ctrls.writePktSize::5                    0                       # Write request sizes (log2)
system.mem_ctrls.writePktSize::6               514053                       # Write request sizes (log2)
system.mem_ctrls.rdQLenPdf::0                  555704                       # What read queue length does an incoming req see
system.mem_ctrls.rdQLenPdf::1                       7                       # What read queue length does an incoming req see
system.mem_ctrls.rdQLenPdf::2                       0                       # What read queue length does an incoming req see
system.mem_ctrls.rdQLenPdf::3                       0                       # What read queue length does an incoming req see
system.mem_ctrls.rdQLenPdf::4                       0                       # What read queue length does an incoming req see
system.mem_ctrls.rdQLenPdf::5                       0                       # What read queue length does an incoming req see
system.mem_ctrls.rdQLenPdf::6                       0                       # What read queue length does an incoming req see
system.mem_ctrls.rdQLenPdf::7                       0                       # What read queue length does an incoming req see
system.mem_ctrls.rdQLenPdf::8                       0                       # What read queue length does an incoming req see
system.mem_ctrls.rdQLenPdf::9                       0                       # What read queue length does an incoming req see
system.mem_ctrls.rdQLenPdf::10                      0                       # What read queue length does an incoming req see
system.mem_ctrls.rdQLenPdf::11                      0                       # What read queue length does an incoming req see
system.mem_ctrls.rdQLenPdf::12                      0                       # What read queue length does an incoming req see
system.mem_ctrls.rdQLenPdf::13                      0                       # What read queue length does an incoming req see
system.mem_ctrls.rdQLenPdf::14                      0                       # What read queue length does an incoming req see
system.mem_ctrls.rdQLenPdf::15                      0                       # What read queue length does an incoming req see
system.mem_ctrls.rdQLenPdf::16                      0                       # What read queue length does an incoming req see
system.mem_ctrls.rdQLenPdf::17                      0                       # What read queue length does an incoming req see
system.mem_ctrls.rdQLenPdf::18                      0                       # What read queue length does an incoming req see
system.mem_ctrls.rdQLenPdf::19                      0                       # What read queue length does an incoming req see
system.mem_ctrls.rdQLenPdf::20                      0                       # What read queue length does an incoming req see
system.mem_ctrls.rdQLenPdf::21                      0                       # What read queue length does an incoming req see
system.mem_ctrls.rdQLenPdf::22                      0                       # What read queue length does an incoming req see
system.mem_ctrls.rdQLenPdf::23                      0                       # What read queue length does an incoming req see
system.mem_ctrls.rdQLenPdf::24                      0                       # What read queue length does an incoming req see
system.mem_ctrls.rdQLenPdf::25                      0                       # What read queue length does an incoming req see
system.mem_ctrls.rdQLenPdf::26                      0                       # What read queue length does an incoming req see
system.mem_ctrls.rdQLenPdf::27                      0                       # What read queue length does an incoming req see
system.mem_ctrls.rdQLenPdf::28                      0                       # What read queue length does an incoming req see
system.mem_ctrls.rdQLenPdf::29                      0                       # What read queue length does an incoming req see
system.mem_ctrls.rdQLenPdf::30                      0                       # What read queue length does an incoming req see
system.mem_ctrls.rdQLenPdf::31                      0                       # What read queue length does an incoming req see
system.mem_ctrls.wrQLenPdf::0                       1                       # What write queue length does an incoming req see
system.mem_ctrls.wrQLenPdf::1                       1                       # What write queue length does an incoming req see
system.mem_ctrls.wrQLenPdf::2                       1                       # What write queue length does an incoming req see
system.mem_ctrls.wrQLenPdf::3                       1                       # What write queue length does an incoming req see
system.mem_ctrls.wrQLenPdf::4                       1                       # What write queue length does an incoming req see
system.mem_ctrls.wrQLenPdf::5                       1                       # What write queue length does an incoming req see
system.mem_ctrls.wrQLenPdf::6                       1                       # What write queue length does an incoming req see
system.mem_ctrls.wrQLenPdf::7                       1                       # What write queue length does an incoming req see
system.mem_ctrls.wrQLenPdf::8                       1                       # What write queue length does an incoming req see
system.mem_ctrls.wrQLenPdf::9                       1                       # What write queue length does an incoming req see
system.mem_ctrls.wrQLenPdf::10                      1                       # What write queue length does an incoming req see
system.mem_ctrls.wrQLenPdf::11                      1                       # What write queue length does an incoming req see
system.mem_ctrls.wrQLenPdf::12                      1                       # What write queue length does an incoming req see
system.mem_ctrls.wrQLenPdf::13                      1                       # What write queue length does an incoming req see
system.mem_ctrls.wrQLenPdf::14                      1                       # What write queue length does an incoming req see
system.mem_ctrls.wrQLenPdf::15                   1943                       # What write queue length does an incoming req see
system.mem_ctrls.wrQLenPdf::16                   3008                       # What write queue length does an incoming req see
system.mem_ctrls.wrQLenPdf::17                  31652                       # What write queue length does an incoming req see
system.mem_ctrls.wrQLenPdf::18                  32268                       # What write queue length does an incoming req see
system.mem_ctrls.wrQLenPdf::19                  31824                       # What write queue length does an incoming req see
system.mem_ctrls.wrQLenPdf::20                  32362                       # What write queue length does an incoming req see
system.mem_ctrls.wrQLenPdf::21                  32314                       # What write queue length does an incoming req see
system.mem_ctrls.wrQLenPdf::22                  31590                       # What write queue length does an incoming req see
system.mem_ctrls.wrQLenPdf::23                  32236                       # What write queue length does an incoming req see
system.mem_ctrls.wrQLenPdf::24                  32260                       # What write queue length does an incoming req see
system.mem_ctrls.wrQLenPdf::25                  31666                       # What write queue length does an incoming req see
system.mem_ctrls.wrQLenPdf::26                  31720                       # What write queue length does an incoming req see
system.mem_ctrls.wrQLenPdf::27                  31606                       # What write queue length does an incoming req see
system.mem_ctrls.wrQLenPdf::28                  31687                       # What write queue length does an incoming req see
system.mem_ctrls.wrQLenPdf::29                  31287                       # What write queue length does an incoming req see
system.mem_ctrls.wrQLenPdf::30                  31336                       # What write queue length does an incoming req see
system.mem_ctrls.wrQLenPdf::31                  31398                       # What write queue length does an incoming req see
system.mem_ctrls.wrQLenPdf::32                  31207                       # What write queue length does an incoming req see
system.mem_ctrls.wrQLenPdf::33                    129                       # What write queue length does an incoming req see
system.mem_ctrls.wrQLenPdf::34                    101                       # What write queue length does an incoming req see
system.mem_ctrls.wrQLenPdf::35                     95                       # What write queue length does an incoming req see
system.mem_ctrls.wrQLenPdf::36                     79                       # What write queue length does an incoming req see
system.mem_ctrls.wrQLenPdf::37                     67                       # What write queue length does an incoming req see
system.mem_ctrls.wrQLenPdf::38                     54                       # What write queue length does an incoming req see
system.mem_ctrls.wrQLenPdf::39                     38                       # What write queue length does an incoming req see
system.mem_ctrls.wrQLenPdf::40                     36                       # What write queue length does an incoming req see
system.mem_ctrls.wrQLenPdf::41                     26                       # What write queue length does an incoming req see
system.mem_ctrls.wrQLenPdf::42                     16                       # What write queue length does an incoming req see
system.mem_ctrls.wrQLenPdf::43                     15                       # What write queue length does an incoming req see
system.mem_ctrls.wrQLenPdf::44                      7                       # What write queue length does an incoming req see
system.mem_ctrls.wrQLenPdf::45                      3                       # What write queue length does an incoming req see
system.mem_ctrls.wrQLenPdf::46                      3                       # What write queue length does an incoming req see
system.mem_ctrls.wrQLenPdf::47                      0                       # What write queue length does an incoming req see
system.mem_ctrls.wrQLenPdf::48                      0                       # What write queue length does an incoming req see
system.mem_ctrls.wrQLenPdf::49                      0                       # What write queue length does an incoming req see
system.mem_ctrls.wrQLenPdf::50                      0                       # What write queue length does an incoming req see
system.mem_ctrls.wrQLenPdf::51                      0                       # What write queue length does an incoming req see
system.mem_ctrls.wrQLenPdf::52                      0                       # What write queue length does an incoming req see
system.mem_ctrls.wrQLenPdf::53                      0                       # What write queue length does an incoming req see
system.mem_ctrls.wrQLenPdf::54                      0                       # What write queue length does an incoming req see
system.mem_ctrls.wrQLenPdf::55                      0                       # What write queue length does an incoming req see
system.mem_ctrls.wrQLenPdf::56                      0                       # What write queue length does an incoming req see
system.mem_ctrls.wrQLenPdf::57                      0                       # What write queue length does an incoming req see
system.mem_ctrls.wrQLenPdf::58                      0                       # What write queue length does an incoming req see
system.mem_ctrls.wrQLenPdf::59                      0                       # What write queue length does an incoming req see
system.mem_ctrls.wrQLenPdf::60                      0                       # What write queue length does an incoming req see
system.mem_ctrls.wrQLenPdf::61                      0                       # What write queue length does an incoming req see
system.mem_ctrls.wrQLenPdf::62                      0                       # What write queue length does an incoming req see
system.mem_ctrls.wrQLenPdf::63                      0                       # What write queue length does an incoming req see
system.mem_ctrls.bytesPerActivate::samples       161803                       # Bytes accessed per row activation
system.mem_ctrls.bytesPerActivate::mean    423.124713                       # Bytes accessed per row activation
system.mem_ctrls.bytesPerActivate::gmean   248.824402                       # Bytes accessed per row activation
system.mem_ctrls.bytesPerActivate::stdev   383.236615                       # Bytes accessed per row activation
system.mem_ctrls.bytesPerActivate::0-127        47556     29.39%     29.39% # Bytes accessed per row activation
system.mem_ctrls.bytesPerActivate::128-255        30792     19.03%     48.42% # Bytes accessed per row activation
system.mem_ctrls.bytesPerActivate::256-383        15412      9.53%     57.95% # Bytes accessed per row activation
system.mem_ctrls.bytesPerActivate::384-511         9100      5.62%     63.57% # Bytes accessed per row activation
system.mem_ctrls.bytesPerActivate::512-639         8582      5.30%     68.88% # Bytes accessed per row activation
system.mem_ctrls.bytesPerActivate::640-767         5454      3.37%     72.25% # Bytes accessed per row activation
system.mem_ctrls.bytesPerActivate::768-895         5192      3.21%     75.45% # Bytes accessed per row activation
system.mem_ctrls.bytesPerActivate::896-1023         4870      3.01%     78.46% # Bytes accessed per row activation
system.mem_ctrls.bytesPerActivate::1024-1151        34845     21.54%    100.00% # Bytes accessed per row activation
system.mem_ctrls.bytesPerActivate::total       161803                       # Bytes accessed per row activation
system.mem_ctrls.rdPerTurnAround::samples        31139                       # Reads before turning the bus around for writes
system.mem_ctrls.rdPerTurnAround::mean      17.845917                       # Reads before turning the bus around for writes
system.mem_ctrls.rdPerTurnAround::stdev    326.008740                       # Reads before turning the bus around for writes
system.mem_ctrls.rdPerTurnAround::0-2047        31138    100.00%    100.00% # Reads before turning the bus around for writes
system.mem_ctrls.rdPerTurnAround::57344-59391            1      0.00%    100.00% # Reads before turning the bus around for writes
system.mem_ctrls.rdPerTurnAround::total         31139                       # Reads before turning the bus around for writes
system.mem_ctrls.wrPerTurnAround::samples        31139                       # Writes before turning the bus around for reads
system.mem_ctrls.wrPerTurnAround::mean      16.507467                       # Writes before turning the bus around for reads
system.mem_ctrls.wrPerTurnAround::gmean     16.402908                       # Writes before turning the bus around for reads
system.mem_ctrls.wrPerTurnAround::stdev      2.266220                       # Writes before turning the bus around for reads
system.mem_ctrls.wrPerTurnAround::16-17         28978     93.06%     93.06% # Writes before turning the bus around for reads
system.mem_ctrls.wrPerTurnAround::18-19           429      1.38%     94.44% # Writes before turning the bus around for reads
system.mem_ctrls.wrPerTurnAround::20-21           457      1.47%     95.91% # Writes before turning the bus around for reads
system.mem_ctrls.wrPerTurnAround::22-23           176      0.57%     96.47% # Writes before turning the bus around for reads
system.mem_ctrls.wrPerTurnAround::24-25           702      2.25%     98.73% # Writes before turning the bus around for reads
system.mem_ctrls.wrPerTurnAround::26-27            34      0.11%     98.83% # Writes before turning the bus around for reads
system.mem_ctrls.wrPerTurnAround::28-29           277      0.89%     99.72% # Writes before turning the bus around for reads
system.mem_ctrls.wrPerTurnAround::30-31            11      0.04%     99.76% # Writes before turning the bus around for reads
system.mem_ctrls.wrPerTurnAround::32-33            11      0.04%     99.79% # Writes before turning the bus around for reads
system.mem_ctrls.wrPerTurnAround::34-35             3      0.01%     99.80% # Writes before turning the bus around for reads
system.mem_ctrls.wrPerTurnAround::36-37             4      0.01%     99.82% # Writes before turning the bus around for reads
system.mem_ctrls.wrPerTurnAround::38-39            11      0.04%     99.85% # Writes before turning the bus around for reads
system.mem_ctrls.wrPerTurnAround::40-41            10      0.03%     99.88% # Writes before turning the bus around for reads
system.mem_ctrls.wrPerTurnAround::42-43             4      0.01%     99.90% # Writes before turning the bus around for reads
system.mem_ctrls.wrPerTurnAround::44-45             9      0.03%     99.93% # Writes before turning the bus around for reads
system.mem_ctrls.wrPerTurnAround::46-47             4      0.01%     99.94% # Writes before turning the bus around for reads
system.mem_ctrls.wrPerTurnAround::48-49             6      0.02%     99.96% # Writes before turning the bus around for reads
system.mem_ctrls.wrPerTurnAround::50-51             9      0.03%     99.99% # Writes before turning the bus around for reads
system.mem_ctrls.wrPerTurnAround::52-53             1      0.00%     99.99% # Writes before turning the bus around for reads
system.mem_ctrls.wrPerTurnAround::56-57             2      0.01%    100.00% # Writes before turning the bus around for reads
system.mem_ctrls.wrPerTurnAround::64-65             1      0.00%    100.00% # Writes before turning the bus around for reads
system.mem_ctrls.wrPerTurnAround::total         31139                       # Writes before turning the bus around for reads
system.mem_ctrls.totQLat                   7781944000                       # Total ticks spent queuing
system.mem_ctrls.totMemAccLat             18201525250                       # Total ticks spent from burst creation until serviced by the DRAM
system.mem_ctrls.totBusLat                 2778555000                       # Total ticks spent in databus transfers
system.mem_ctrls.avgQLat                     14003.58                       # Average queueing delay per DRAM burst
system.mem_ctrls.avgBusLat                    5000.00                       # Average bus latency per DRAM burst
system.mem_ctrls.avgMemAccLat                32753.58                       # Average memory access latency per DRAM burst
system.mem_ctrls.avgRdBW                         6.67                       # Average DRAM read bandwidth in MiByte/s
system.mem_ctrls.avgWrBW                         6.17                       # Average achieved write bandwidth in MiByte/s
system.mem_ctrls.avgRdBWSys                      6.67                       # Average system read bandwidth in MiByte/s
system.mem_ctrls.avgWrBWSys                      6.17                       # Average system write bandwidth in MiByte/s
system.mem_ctrls.peakBW                      12800.00                       # Theoretical peak bandwidth in MiByte/s
system.mem_ctrls.busUtil                         0.10                       # Data bus utilization in percentage
system.mem_ctrls.busUtilRead                     0.05                       # Data bus utilization in percentage for reads
system.mem_ctrls.busUtilWrite                    0.05                       # Data bus utilization in percentage for writes
system.mem_ctrls.avgRdQLen                       1.00                       # Average read queue length when enqueuing
system.mem_ctrls.avgWrQLen                      26.49                       # Average write queue length when enqueuing
system.mem_ctrls.readRowHits                   484441                       # Number of row buffer hits during reads
system.mem_ctrls.writeRowHits                  423491                       # Number of row buffer hits during writes
system.mem_ctrls.readRowHitRate                 87.17                       # Row buffer hit rate for reads
system.mem_ctrls.writeRowHitRate                82.38                       # Row buffer hit rate for writes
system.mem_ctrls.avgGap                    4987180.79                       # Average gap between requests
system.mem_ctrls.pageHitRate                    84.87                       # Row buffer hit rate, read and write combined
system.mem_ctrls_0.actEnergy                618460920                       # Energy for activate commands per rank (pJ)
system.mem_ctrls_0.preEnergy                337453875                       # Energy for precharge commands per rank (pJ)
system.mem_ctrls_0.readEnergy              2157870000                       # Energy for read commands per rank (pJ)
system.mem_ctrls_0.writeEnergy             1663714080                       # Energy for write commands per rank (pJ)
system.mem_ctrls_0.refreshEnergy         348475991760                       # Energy for refresh commands per rank (pJ)
system.mem_ctrls_0.actBackEnergy         164318109165                       # Energy for active background per rank (pJ)
system.mem_ctrls_0.preBackEnergy         3057042662250                       # Energy for precharge background per rank (pJ)
system.mem_ctrls_0.totalEnergy           3574614262050                       # Total energy per rank (pJ)
system.mem_ctrls_0.averagePower            669.992831                       # Core power per rank (mW)
system.mem_ctrls_0.memoryStateTime::IDLE 5085137213750                       # Time in different power states
system.mem_ctrls_0.memoryStateTime::REF  178157460000                       # Time in different power states
system.mem_ctrls_0.memoryStateTime::PRE_PDN            0                       # Time in different power states
system.mem_ctrls_0.memoryStateTime::ACT   72010856250                       # Time in different power states
system.mem_ctrls_0.memoryStateTime::ACT_PDN            0                       # Time in different power states
system.mem_ctrls_1.actEnergy                604769760                       # Energy for activate commands per rank (pJ)
system.mem_ctrls_1.preEnergy                329983500                       # Energy for precharge commands per rank (pJ)
system.mem_ctrls_1.readEnergy              2176636800                       # Energy for read commands per rank (pJ)
system.mem_ctrls_1.writeEnergy             1667174400                       # Energy for write commands per rank (pJ)
system.mem_ctrls_1.refreshEnergy         348475991760                       # Energy for refresh commands per rank (pJ)
system.mem_ctrls_1.actBackEnergy         163662415650                       # Energy for active background per rank (pJ)
system.mem_ctrls_1.preBackEnergy         3057617832000                       # Energy for precharge background per rank (pJ)
system.mem_ctrls_1.totalEnergy           3574534803870                       # Total energy per rank (pJ)
system.mem_ctrls_1.averagePower            669.977938                       # Core power per rank (mW)
system.mem_ctrls_1.memoryStateTime::IDLE 5086091650000                       # Time in different power states
system.mem_ctrls_1.memoryStateTime::REF  178157460000                       # Time in different power states
system.mem_ctrls_1.memoryStateTime::PRE_PDN            0                       # Time in different power states
system.mem_ctrls_1.memoryStateTime::ACT   71056667500                       # Time in different power states
system.mem_ctrls_1.memoryStateTime::ACT_PDN            0                       # Time in different power states
system.cpu_voltage_domain.voltage                   1                       # Voltage in Volts
system.cpu_clk_domain.clock                       500                       # Clock period in ticks
system.cpu.apic_clk_domain.clock                 8000                       # Clock period in ticks
system.cpu.numCycles                      10670612232                       # number of cpu cycles simulated
system.cpu.numWorkItemsStarted                      0                       # number of work items this cpu started
system.cpu.numWorkItemsCompleted                    0                       # number of work items this cpu completed
system.cpu.committedInsts                    94397100                       # Number of instructions committed
system.cpu.committedOps                     184572897                       # Number of ops (including micro ops) committed
system.cpu.num_int_alu_accesses             175650682                       # Number of integer alu accesses
system.cpu.num_fp_alu_accesses                  41144                       # Number of float alu accesses
system.cpu.num_func_calls                     2321718                       # number of times a function call or return occured
system.cpu.num_conditional_control_insts     16774038                       # number of instructions that are conditional controls
system.cpu.num_int_insts                    175650682                       # number of integer instructions
system.cpu.num_fp_insts                         41144                       # number of float instructions
system.cpu.num_int_register_reads           332765185                       # number of times the integer registers were read
system.cpu.num_int_register_writes          146160848                       # number of times the integer registers were written
system.cpu.num_fp_register_reads                67816                       # number of times the floating registers were read
system.cpu.num_fp_register_writes               32733                       # number of times the floating registers were written
system.cpu.num_cc_register_reads             96885480                       # number of times the CC registers were read
system.cpu.num_cc_register_writes            67240663                       # number of times the CC registers were written
system.cpu.num_mem_refs                      25578343                       # number of memory refs
system.cpu.num_load_insts                    15158859                       # Number of load instructions
system.cpu.num_store_insts                   10419484                       # Number of store instructions
system.cpu.num_idle_cycles               9810837930.694160                       # Number of idle cycles
system.cpu.num_busy_cycles               859774301.305839                       # Number of busy cycles
system.cpu.not_idle_fraction                 0.080574                       # Percentage of non-idle cycles
system.cpu.idle_fraction                     0.919426                       # Percentage of idle cycles
system.cpu.Branches                          20013136                       # Number of branches fetched
system.cpu.op_class::No_OpClass               1142230      0.62%      0.62% # Class of executed instruction
system.cpu.op_class::IntAlu                 157597025     85.38%     86.00% # Class of executed instruction
system.cpu.op_class::IntMult                   123938      0.07%     86.07% # Class of executed instruction
system.cpu.op_class::IntDiv                    109082      0.06%     86.13% # Class of executed instruction
system.cpu.op_class::FloatAdd                   29248      0.02%     86.14% # Class of executed instruction
system.cpu.op_class::FloatCmp                       0      0.00%     86.14% # Class of executed instruction
system.cpu.op_class::FloatCvt                      16      0.00%     86.14% # Class of executed instruction
system.cpu.op_class::FloatMult                      0      0.00%     86.14% # Class of executed instruction
system.cpu.op_class::FloatDiv                       0      0.00%     86.14% # Class of executed instruction
system.cpu.op_class::FloatSqrt                      0      0.00%     86.14% # Class of executed instruction
system.cpu.op_class::SimdAdd                        0      0.00%     86.14% # Class of executed instruction
system.cpu.op_class::SimdAddAcc                     0      0.00%     86.14% # Class of executed instruction
system.cpu.op_class::SimdAlu                        0      0.00%     86.14% # Class of executed instruction
system.cpu.op_class::SimdCmp                        0      0.00%     86.14% # Class of executed instruction
system.cpu.op_class::SimdCvt                        0      0.00%     86.14% # Class of executed instruction
system.cpu.op_class::SimdMisc                       0      0.00%     86.14% # Class of executed instruction
system.cpu.op_class::SimdMult                       0      0.00%     86.14% # Class of executed instruction
system.cpu.op_class::SimdMultAcc                    0      0.00%     86.14% # Class of executed instruction
system.cpu.op_class::SimdShift                      0      0.00%     86.14% # Class of executed instruction
system.cpu.op_class::SimdShiftAcc                   0      0.00%     86.14% # Class of executed instruction
system.cpu.op_class::SimdSqrt                       0      0.00%     86.14% # Class of executed instruction
system.cpu.op_class::SimdFloatAdd                   0      0.00%     86.14% # Class of executed instruction
system.cpu.op_class::SimdFloatAlu                   0      0.00%     86.14% # Class of executed instruction
system.cpu.op_class::SimdFloatCmp                   0      0.00%     86.14% # Class of executed instruction
system.cpu.op_class::SimdFloatCvt                   0      0.00%     86.14% # Class of executed instruction
system.cpu.op_class::SimdFloatDiv                   0      0.00%     86.14% # Class of executed instruction
system.cpu.op_class::SimdFloatMisc                  0      0.00%     86.14% # Class of executed instruction
system.cpu.op_class::SimdFloatMult                  0      0.00%     86.14% # Class of executed instruction
system.cpu.op_class::SimdFloatMultAcc               0      0.00%     86.14% # Class of executed instruction
system.cpu.op_class::SimdFloatSqrt                  0      0.00%     86.14% # Class of executed instruction
system.cpu.op_class::MemRead                 15153887      8.21%     94.35% # Class of executed instruction
system.cpu.op_class::MemWrite                10419484      5.65%    100.00% # Class of executed instruction
system.cpu.op_class::IprAccess                      0      0.00%    100.00% # Class of executed instruction
system.cpu.op_class::InstPrefetch                   0      0.00%    100.00% # Class of executed instruction
system.cpu.op_class::total                  184574910                       # Class of executed instruction
system.cpu.kern.inst.arm                            0                       # number of arm instructions executed
system.cpu.kern.inst.quiesce                        0                       # number of quiesce instructions executed
system.iobus.trans_dist::ReadReq               842194                       # Transaction distribution
system.iobus.trans_dist::ReadResp              842194                       # Transaction distribution
system.iobus.trans_dist::WriteReq               12549                       # Transaction distribution
system.iobus.trans_dist::WriteResp              12549                       # Transaction distribution
system.iobus.trans_dist::MessageReq              1615                       # Transaction distribution
system.iobus.trans_dist::MessageResp             1615                       # Transaction distribution
system.iobus.pkt_count_system.pc.south_bridge.io_apic.int_master::system.ruby.l1_cntrl0.sequencer.pio-slave-port         3230                       # Packet count per connected master and slave (bytes)
system.iobus.pkt_count_system.pc.south_bridge.io_apic.int_master::total         3230                       # Packet count per connected master and slave (bytes)
system.iobus.pkt_count_system.ruby.l1_cntrl0.sequencer.mem-master-port::system.pc.south_bridge.cmos.pio           48                       # Packet count per connected master and slave (bytes)
system.iobus.pkt_count_system.ruby.l1_cntrl0.sequencer.mem-master-port::system.pc.south_bridge.dma1.pio            6                       # Packet count per connected master and slave (bytes)
system.iobus.pkt_count_system.ruby.l1_cntrl0.sequencer.mem-master-port::system.pc.south_bridge.ide.pio         6764                       # Packet count per connected master and slave (bytes)
system.iobus.pkt_count_system.ruby.l1_cntrl0.sequencer.mem-master-port::system.pc.south_bridge.ide-pciconf          180                       # Packet count per connected master and slave (bytes)
system.iobus.pkt_count_system.ruby.l1_cntrl0.sequencer.mem-master-port::system.pc.south_bridge.keyboard.pio         1364                       # Packet count per connected master and slave (bytes)
system.iobus.pkt_count_system.ruby.l1_cntrl0.sequencer.mem-master-port::system.pc.south_bridge.pic1.pio          130                       # Packet count per connected master and slave (bytes)
system.iobus.pkt_count_system.ruby.l1_cntrl0.sequencer.mem-master-port::system.pc.south_bridge.pic2.pio           54                       # Packet count per connected master and slave (bytes)
system.iobus.pkt_count_system.ruby.l1_cntrl0.sequencer.mem-master-port::system.pc.south_bridge.pit.pio           30                       # Packet count per connected master and slave (bytes)
system.iobus.pkt_count_system.ruby.l1_cntrl0.sequencer.mem-master-port::system.pc.south_bridge.speaker.pio       934582                       # Packet count per connected master and slave (bytes)
system.iobus.pkt_count_system.ruby.l1_cntrl0.sequencer.mem-master-port::system.pc.south_bridge.io_apic.pio         1554                       # Packet count per connected master and slave (bytes)
system.iobus.pkt_count_system.ruby.l1_cntrl0.sequencer.mem-master-port::system.pc.i_dont_exist1.pio          174                       # Packet count per connected master and slave (bytes)
system.iobus.pkt_count_system.ruby.l1_cntrl0.sequencer.mem-master-port::system.pc.behind_pci.pio            2                       # Packet count per connected master and slave (bytes)
system.iobus.pkt_count_system.ruby.l1_cntrl0.sequencer.mem-master-port::system.pc.com_1.pio        29328                       # Packet count per connected master and slave (bytes)
system.iobus.pkt_count_system.ruby.l1_cntrl0.sequencer.mem-master-port::system.pc.fake_com_2.pio           12                       # Packet count per connected master and slave (bytes)
system.iobus.pkt_count_system.ruby.l1_cntrl0.sequencer.mem-master-port::system.pc.fake_com_3.pio           12                       # Packet count per connected master and slave (bytes)
system.iobus.pkt_count_system.ruby.l1_cntrl0.sequencer.mem-master-port::system.pc.fake_com_4.pio           12                       # Packet count per connected master and slave (bytes)
system.iobus.pkt_count_system.ruby.l1_cntrl0.sequencer.mem-master-port::system.pc.fake_floppy.pio           10                       # Packet count per connected master and slave (bytes)
system.iobus.pkt_count_system.ruby.l1_cntrl0.sequencer.mem-master-port::system.ruby.l1_cntrl0.sequencer.pio-slave-port       733098                       # Packet count per connected master and slave (bytes)
system.iobus.pkt_count_system.ruby.l1_cntrl0.sequencer.mem-master-port::system.pc.pciconfig.pio         2126                       # Packet count per connected master and slave (bytes)
system.iobus.pkt_count_system.ruby.l1_cntrl0.sequencer.mem-master-port::total      1709486                       # Packet count per connected master and slave (bytes)
system.iobus.pkt_count::total                 1712716                       # Packet count per connected master and slave (bytes)
system.iobus.pkt_size_system.pc.south_bridge.io_apic.int_master::system.ruby.l1_cntrl0.sequencer.pio-slave-port         6460                       # Cumulative packet size per connected master and slave (bytes)
system.iobus.pkt_size_system.pc.south_bridge.io_apic.int_master::total         6460                       # Cumulative packet size per connected master and slave (bytes)
system.iobus.pkt_size_system.ruby.l1_cntrl0.sequencer.mem-master-port::system.pc.south_bridge.cmos.pio           24                       # Cumulative packet size per connected master and slave (bytes)
system.iobus.pkt_size_system.ruby.l1_cntrl0.sequencer.mem-master-port::system.pc.south_bridge.dma1.pio            3                       # Cumulative packet size per connected master and slave (bytes)
system.iobus.pkt_size_system.ruby.l1_cntrl0.sequencer.mem-master-port::system.pc.south_bridge.ide.pio         4242                       # Cumulative packet size per connected master and slave (bytes)
system.iobus.pkt_size_system.ruby.l1_cntrl0.sequencer.mem-master-port::system.pc.south_bridge.ide-pciconf          221                       # Cumulative packet size per connected master and slave (bytes)
system.iobus.pkt_size_system.ruby.l1_cntrl0.sequencer.mem-master-port::system.pc.south_bridge.keyboard.pio          682                       # Cumulative packet size per connected master and slave (bytes)
system.iobus.pkt_size_system.ruby.l1_cntrl0.sequencer.mem-master-port::system.pc.south_bridge.pic1.pio           65                       # Cumulative packet size per connected master and slave (bytes)
system.iobus.pkt_size_system.ruby.l1_cntrl0.sequencer.mem-master-port::system.pc.south_bridge.pic2.pio           27                       # Cumulative packet size per connected master and slave (bytes)
system.iobus.pkt_size_system.ruby.l1_cntrl0.sequencer.mem-master-port::system.pc.south_bridge.pit.pio           15                       # Cumulative packet size per connected master and slave (bytes)
system.iobus.pkt_size_system.ruby.l1_cntrl0.sequencer.mem-master-port::system.pc.south_bridge.speaker.pio       467291                       # Cumulative packet size per connected master and slave (bytes)
system.iobus.pkt_size_system.ruby.l1_cntrl0.sequencer.mem-master-port::system.pc.south_bridge.io_apic.pio         3108                       # Cumulative packet size per connected master and slave (bytes)
system.iobus.pkt_size_system.ruby.l1_cntrl0.sequencer.mem-master-port::system.pc.i_dont_exist1.pio           87                       # Cumulative packet size per connected master and slave (bytes)
system.iobus.pkt_size_system.ruby.l1_cntrl0.sequencer.mem-master-port::system.pc.behind_pci.pio            1                       # Cumulative packet size per connected master and slave (bytes)
system.iobus.pkt_size_system.ruby.l1_cntrl0.sequencer.mem-master-port::system.pc.com_1.pio        14664                       # Cumulative packet size per connected master and slave (bytes)
system.iobus.pkt_size_system.ruby.l1_cntrl0.sequencer.mem-master-port::system.pc.fake_com_2.pio            6                       # Cumulative packet size per connected master and slave (bytes)
system.iobus.pkt_size_system.ruby.l1_cntrl0.sequencer.mem-master-port::system.pc.fake_com_3.pio            6                       # Cumulative packet size per connected master and slave (bytes)
system.iobus.pkt_size_system.ruby.l1_cntrl0.sequencer.mem-master-port::system.pc.fake_com_4.pio            6                       # Cumulative packet size per connected master and slave (bytes)
system.iobus.pkt_size_system.ruby.l1_cntrl0.sequencer.mem-master-port::system.pc.fake_floppy.pio            5                       # Cumulative packet size per connected master and slave (bytes)
system.iobus.pkt_size_system.ruby.l1_cntrl0.sequencer.mem-master-port::system.ruby.l1_cntrl0.sequencer.pio-slave-port      1466190                       # Cumulative packet size per connected master and slave (bytes)
system.iobus.pkt_size_system.ruby.l1_cntrl0.sequencer.mem-master-port::system.pc.pciconfig.pio         4252                       # Cumulative packet size per connected master and slave (bytes)
system.iobus.pkt_size_system.ruby.l1_cntrl0.sequencer.mem-master-port::total      1960895                       # Cumulative packet size per connected master and slave (bytes)
system.iobus.pkt_size::total                  1967355                       # Cumulative packet size per connected master and slave (bytes)
system.iobus.reqLayer0.occupancy                47000                       # Layer occupancy (ticks)
system.iobus.reqLayer0.utilization                0.0                       # Layer utilization (%)
system.iobus.reqLayer1.occupancy                 6500                       # Layer occupancy (ticks)
system.iobus.reqLayer1.utilization                0.0                       # Layer utilization (%)
system.iobus.reqLayer2.occupancy              6045000                       # Layer occupancy (ticks)
system.iobus.reqLayer2.utilization                0.0                       # Layer utilization (%)
system.iobus.reqLayer3.occupancy               145500                       # Layer occupancy (ticks)
system.iobus.reqLayer3.utilization                0.0                       # Layer utilization (%)
system.iobus.reqLayer4.occupancy              1070000                       # Layer occupancy (ticks)
system.iobus.reqLayer4.utilization                0.0                       # Layer utilization (%)
system.iobus.reqLayer5.occupancy               136000                       # Layer occupancy (ticks)
system.iobus.reqLayer5.utilization                0.0                       # Layer utilization (%)
system.iobus.reqLayer6.occupancy                58500                       # Layer occupancy (ticks)
system.iobus.reqLayer6.utilization                0.0                       # Layer utilization (%)
system.iobus.reqLayer7.occupancy                27500                       # Layer occupancy (ticks)
system.iobus.reqLayer7.utilization                0.0                       # Layer utilization (%)
system.iobus.reqLayer8.occupancy            467292000                       # Layer occupancy (ticks)
system.iobus.reqLayer8.utilization                0.0                       # Layer utilization (%)
system.iobus.reqLayer9.occupancy              1558000                       # Layer occupancy (ticks)
system.iobus.reqLayer9.utilization                0.0                       # Layer utilization (%)
system.iobus.reqLayer10.occupancy              204000                       # Layer occupancy (ticks)
system.iobus.reqLayer10.utilization               0.0                       # Layer utilization (%)
system.iobus.reqLayer12.occupancy                2500                       # Layer occupancy (ticks)
system.iobus.reqLayer12.utilization               0.0                       # Layer utilization (%)
system.iobus.reqLayer13.occupancy            25163500                       # Layer occupancy (ticks)
system.iobus.reqLayer13.utilization               0.0                       # Layer utilization (%)
system.iobus.reqLayer14.occupancy                9000                       # Layer occupancy (ticks)
system.iobus.reqLayer14.utilization               0.0                       # Layer utilization (%)
system.iobus.reqLayer15.occupancy                9000                       # Layer occupancy (ticks)
system.iobus.reqLayer15.utilization               0.0                       # Layer utilization (%)
system.iobus.reqLayer16.occupancy                9000                       # Layer occupancy (ticks)
system.iobus.reqLayer16.utilization               0.0                       # Layer utilization (%)
system.iobus.reqLayer17.occupancy               12000                       # Layer occupancy (ticks)
system.iobus.reqLayer17.utilization               0.0                       # Layer utilization (%)
system.iobus.reqLayer18.occupancy           465341224                       # Layer occupancy (ticks)
system.iobus.reqLayer18.utilization               0.0                       # Layer utilization (%)
system.iobus.reqLayer20.occupancy             1329000                       # Layer occupancy (ticks)
system.iobus.reqLayer20.utilization               0.0                       # Layer utilization (%)
system.iobus.respLayer0.occupancy             2345724                       # Layer occupancy (ticks)
system.iobus.respLayer0.utilization               0.0                       # Layer utilization (%)
system.iobus.respLayer2.occupancy          1793533500                       # Layer occupancy (ticks)
system.iobus.respLayer2.utilization               0.0                       # Layer utilization (%)
system.pc.south_bridge.ide.disks0.dma_read_full_pages            9                       # Number of full page size DMA reads (not PRD).
system.pc.south_bridge.ide.disks0.dma_read_bytes        36864                       # Number of bytes transfered via DMA reads (not PRD).
system.pc.south_bridge.ide.disks0.dma_read_txs            9                       # Number of DMA read transactions (not PRD).
system.pc.south_bridge.ide.disks0.dma_write_full_pages          672                       # Number of full page size DMA writes.
system.pc.south_bridge.ide.disks0.dma_write_bytes      2755584                       # Number of bytes transfered via DMA writes.
system.pc.south_bridge.ide.disks0.dma_write_txs          676                       # Number of DMA write transactions.
system.pc.south_bridge.ide.disks1.dma_read_full_pages            0                       # Number of full page size DMA reads (not PRD).
system.pc.south_bridge.ide.disks1.dma_read_bytes            0                       # Number of bytes transfered via DMA reads (not PRD).
system.pc.south_bridge.ide.disks1.dma_read_txs            0                       # Number of DMA read transactions (not PRD).
system.pc.south_bridge.ide.disks1.dma_write_full_pages            1                       # Number of full page size DMA writes.
system.pc.south_bridge.ide.disks1.dma_write_bytes         4096                       # Number of bytes transfered via DMA writes.
system.pc.south_bridge.ide.disks1.dma_write_txs            1                       # Number of DMA write transactions.
system.ruby.clk_domain.clock                      500                       # Clock period in ticks
system.ruby.delayHist::bucket_size                  2                       # delay histogram for all message
system.ruby.delayHist::max_bucket                  19                       # delay histogram for all message
system.ruby.delayHist::samples               10836786                       # delay histogram for all message
system.ruby.delayHist::mean                  0.557198                       # delay histogram for all message
system.ruby.delayHist::stdev                 2.036493                       # delay histogram for all message
system.ruby.delayHist                    |    10081987     93.03%     93.03% |          36      0.00%     93.04% |          28      0.00%     93.04% |          27      0.00%     93.04% |      754651      6.96%    100.00% |          43      0.00%    100.00% |           0      0.00%    100.00% |           0      0.00%    100.00% |           2      0.00%    100.00% |          12      0.00%    100.00% # delay histogram for all message
system.ruby.delayHist::total                 10836786                       # delay histogram for all message
system.ruby.outstanding_req_hist::bucket_size            1                      
system.ruby.outstanding_req_hist::max_bucket            9                      
system.ruby.outstanding_req_hist::samples    144098555                      
system.ruby.outstanding_req_hist::mean       1.000109                      
system.ruby.outstanding_req_hist::gmean      1.000076                      
system.ruby.outstanding_req_hist::stdev      0.010455                      
system.ruby.outstanding_req_hist         |           0      0.00%      0.00% |   144082801     99.99%     99.99% |       15754      0.01%    100.00% |           0      0.00%    100.00% |           0      0.00%    100.00% |           0      0.00%    100.00% |           0      0.00%    100.00% |           0      0.00%    100.00% |           0      0.00%    100.00% |           0      0.00%    100.00%
system.ruby.outstanding_req_hist::total     144098555                      
system.ruby.latency_hist::bucket_size             256                      
system.ruby.latency_hist::max_bucket             2559                      
system.ruby.latency_hist::samples           144098554                      
system.ruby.latency_hist::mean               3.770570                      
system.ruby.latency_hist::gmean              3.118163                      
system.ruby.latency_hist::stdev             11.127118                      
system.ruby.latency_hist                 |   144060332     99.97%     99.97% |       23907      0.02%     99.99% |       12910      0.01%    100.00% |         954      0.00%    100.00% |         366      0.00%    100.00% |          78      0.00%    100.00% |           7      0.00%    100.00% |           0      0.00%    100.00% |           0      0.00%    100.00% |           0      0.00%    100.00%
system.ruby.latency_hist::total             144098554                      
system.ruby.hit_latency_hist::bucket_size            1                      
system.ruby.hit_latency_hist::max_bucket            9                      
system.ruby.hit_latency_hist::samples       141696916                      
system.ruby.hit_latency_hist::mean                  3                      
system.ruby.hit_latency_hist::gmean          3.000000                      
system.ruby.hit_latency_hist             |           0      0.00%      0.00% |           0      0.00%      0.00% |           0      0.00%      0.00% |   141696916    100.00%    100.00% |           0      0.00%    100.00% |           0      0.00%    100.00% |           0      0.00%    100.00% |           0      0.00%    100.00% |           0      0.00%    100.00% |           0      0.00%    100.00%
system.ruby.hit_latency_hist::total         141696916                      
system.ruby.miss_latency_hist::bucket_size          256                      
system.ruby.miss_latency_hist::max_bucket         2559                      
system.ruby.miss_latency_hist::samples        2401638                      
system.ruby.miss_latency_hist::mean         49.234296                      
system.ruby.miss_latency_hist::gmean        30.463244                      
system.ruby.miss_latency_hist::stdev        72.984922                      
system.ruby.miss_latency_hist            |     2363416     98.41%     98.41% |       23907      1.00%     99.40% |       12910      0.54%     99.94% |         954      0.04%     99.98% |         366      0.02%    100.00% |          78      0.00%    100.00% |           7      0.00%    100.00% |           0      0.00%    100.00% |           0      0.00%    100.00% |           0      0.00%    100.00%
system.ruby.miss_latency_hist::total          2401638                      
system.ruby.l1_cntrl0.L1Dcache.demand_hits     23090355                       # Number of cache demand hits
system.ruby.l1_cntrl0.L1Dcache.demand_misses      1660176                       # Number of cache demand misses
system.ruby.l1_cntrl0.L1Dcache.demand_accesses     24750531                       # Number of cache demand accesses
system.ruby.l1_cntrl0.L1Icache.demand_hits    118606561                       # Number of cache demand hits
system.ruby.l1_cntrl0.L1Icache.demand_misses       741462                       # Number of cache demand misses
system.ruby.l1_cntrl0.L1Icache.demand_accesses    119348023                       # Number of cache demand accesses
system.ruby.l1_cntrl0.prefetcher.miss_observed            0                       # number of misses observed
system.ruby.l1_cntrl0.prefetcher.allocated_streams            0                       # number of streams allocated for prefetching
system.ruby.l1_cntrl0.prefetcher.prefetches_requested            0                       # number of prefetch requests made
system.ruby.l1_cntrl0.prefetcher.prefetches_accepted            0                       # number of prefetch requests accepted
system.ruby.l1_cntrl0.prefetcher.dropped_prefetches            0                       # number of prefetch requests dropped
system.ruby.l1_cntrl0.prefetcher.hits               0                       # number of prefetched blocks accessed
system.ruby.l1_cntrl0.prefetcher.partial_hits            0                       # number of misses observed for a block being prefetched
system.ruby.l1_cntrl0.prefetcher.pages_crossed            0                       # number of prefetches across pages
system.ruby.l1_cntrl0.prefetcher.misses_on_prefetched_blocks            0                       # number of misses for blocks that were prefetched, yet missed
system.ruby.l1_cntrl0.fully_busy_cycles             9                       # cycles for which number of transistions == max transitions
system.ruby.l2_cntrl0.L2cache.demand_hits      1846498                       # Number of cache demand hits
system.ruby.l2_cntrl0.L2cache.demand_misses       555140                       # Number of cache demand misses
system.ruby.l2_cntrl0.L2cache.demand_accesses      2401638                       # Number of cache demand accesses
system.ruby.memctrl_clk_domain.clock             1500                       # Clock period in ticks
system.ruby.network.routers0.percent_links_utilized     0.082103                      
system.ruby.network.routers0.msg_count.Control::0      2401638                      
system.ruby.network.routers0.msg_count.Request_Control::2         4318                      
system.ruby.network.routers0.msg_count.Response_Data::1      2401638                      
system.ruby.network.routers0.msg_count.Response_Control::1      1662540                      
system.ruby.network.routers0.msg_count.Response_Control::2      1660171                      
system.ruby.network.routers0.msg_count.Writeback_Data::0       754673                      
system.ruby.network.routers0.msg_count.Writeback_Data::1          454                      
system.ruby.network.routers0.msg_count.Writeback_Control::0       904003                      
system.ruby.network.routers0.msg_bytes.Control::0     19213104                      
system.ruby.network.routers0.msg_bytes.Request_Control::2        34544                      
system.ruby.network.routers0.msg_bytes.Response_Data::1    172917936                      
system.ruby.network.routers0.msg_bytes.Response_Control::1     13300320                      
system.ruby.network.routers0.msg_bytes.Response_Control::2     13281368                      
system.ruby.network.routers0.msg_bytes.Writeback_Data::0     54336456                      
system.ruby.network.routers0.msg_bytes.Writeback_Data::1        32688                      
system.ruby.network.routers0.msg_bytes.Writeback_Control::0      7232024                      
system.ruby.network.routers1.percent_links_utilized     0.106272                      
system.ruby.network.routers1.msg_count.Control::0      2956778                      
system.ruby.network.routers1.msg_count.Request_Control::2         4318                      
system.ruby.network.routers1.msg_count.Response_Data::1      3429546                      
system.ruby.network.routers1.msg_count.Response_Control::1      2172216                      
system.ruby.network.routers1.msg_count.Response_Control::2      1660171                      
system.ruby.network.routers1.msg_count.Writeback_Data::0       754673                      
system.ruby.network.routers1.msg_count.Writeback_Data::1          454                      
system.ruby.network.routers1.msg_count.Writeback_Control::0       904003                      
system.ruby.network.routers1.msg_bytes.Control::0     23654224                      
system.ruby.network.routers1.msg_bytes.Request_Control::2        34544                      
system.ruby.network.routers1.msg_bytes.Response_Data::1    246927312                      
system.ruby.network.routers1.msg_bytes.Response_Control::1     17377728                      
system.ruby.network.routers1.msg_bytes.Response_Control::2     13281368                      
system.ruby.network.routers1.msg_bytes.Writeback_Data::0     54336456                      
system.ruby.network.routers1.msg_bytes.Writeback_Data::1        32688                      
system.ruby.network.routers1.msg_bytes.Writeback_Control::0      7232024                      
system.ruby.network.routers2.percent_links_utilized     0.024389                      
system.ruby.network.routers2.msg_count.Control::0       555140                      
system.ruby.network.routers2.msg_count.Response_Data::1      1028662                      
system.ruby.network.routers2.msg_count.Response_Control::1       509676                      
system.ruby.network.routers2.msg_count.Writeback_Control::0        43874                      
system.ruby.network.routers2.msg_count.Writeback_Control::1        43120                      
system.ruby.network.routers2.msg_bytes.Control::0      4441120                      
system.ruby.network.routers2.msg_bytes.Response_Data::1     74063664                      
system.ruby.network.routers2.msg_bytes.Response_Control::1      4077408                      
system.ruby.network.routers2.msg_bytes.Writeback_Control::0       350992                      
system.ruby.network.routers2.msg_bytes.Writeback_Control::1       344960                      
system.ruby.network.routers3.percent_links_utilized     0.000220                      
system.ruby.network.routers3.msg_count.Response_Data::1          754                      
system.ruby.network.routers3.msg_count.Writeback_Control::0        43874                      
system.ruby.network.routers3.msg_count.Writeback_Control::1        43120                      
system.ruby.network.routers3.msg_bytes.Response_Data::1        54288                      
system.ruby.network.routers3.msg_bytes.Writeback_Control::0       350992                      
system.ruby.network.routers3.msg_bytes.Writeback_Control::1       344960                      
system.ruby.network.routers4.percent_links_utilized            0                      
system.ruby.network.routers5.percent_links_utilized     0.042597                      
system.ruby.network.routers5.msg_count.Control::0      2956778                      
system.ruby.network.routers5.msg_count.Request_Control::2         4318                      
system.ruby.network.routers5.msg_count.Response_Data::1      3430300                      
system.ruby.network.routers5.msg_count.Response_Control::1      2172216                      
system.ruby.network.routers5.msg_count.Response_Control::2      1660171                      
system.ruby.network.routers5.msg_count.Writeback_Data::0       754673                      
system.ruby.network.routers5.msg_count.Writeback_Data::1          454                      
system.ruby.network.routers5.msg_count.Writeback_Control::0       947877                      
system.ruby.network.routers5.msg_count.Writeback_Control::1        43120                      
system.ruby.network.routers5.msg_bytes.Control::0     23654224                      
system.ruby.network.routers5.msg_bytes.Request_Control::2        34544                      
system.ruby.network.routers5.msg_bytes.Response_Data::1    246981600                      
system.ruby.network.routers5.msg_bytes.Response_Control::1     17377728                      
system.ruby.network.routers5.msg_bytes.Response_Control::2     13281368                      
system.ruby.network.routers5.msg_bytes.Writeback_Data::0     54336456                      
system.ruby.network.routers5.msg_bytes.Writeback_Data::1        32688                      
system.ruby.network.routers5.msg_bytes.Writeback_Control::0      7583016                      
system.ruby.network.routers5.msg_bytes.Writeback_Control::1       344960                      
system.ruby.network.msg_count.Control         8870334                      
system.ruby.network.msg_count.Request_Control        12954                      
system.ruby.network.msg_count.Response_Data     10290900                      
system.ruby.network.msg_count.Response_Control     11497161                      
system.ruby.network.msg_count.Writeback_Data      2265381                      
system.ruby.network.msg_count.Writeback_Control      2972991                      
system.ruby.network.msg_byte.Control         70962672                      
system.ruby.network.msg_byte.Request_Control       103632                      
system.ruby.network.msg_byte.Response_Data    740944800                      
system.ruby.network.msg_byte.Response_Control     91977288                      
system.ruby.network.msg_byte.Writeback_Data    163107432                      
system.ruby.network.msg_byte.Writeback_Control     23783928                      
system.ruby.network.routers0.throttle0.link_utilization     0.109074                      
system.ruby.network.routers0.throttle0.msg_count.Request_Control::2         4318                      
system.ruby.network.routers0.throttle0.msg_count.Response_Data::1      2401638                      
system.ruby.network.routers0.throttle0.msg_count.Response_Control::1      1658676                      
system.ruby.network.routers0.throttle0.msg_bytes.Request_Control::2        34544                      
system.ruby.network.routers0.throttle0.msg_bytes.Response_Data::1    172917936                      
system.ruby.network.routers0.throttle0.msg_bytes.Response_Control::1     13269408                      
system.ruby.network.routers0.throttle1.link_utilization     0.055132                      
system.ruby.network.routers0.throttle1.msg_count.Control::0      2401638                      
system.ruby.network.routers0.throttle1.msg_count.Response_Control::1         3864                      
system.ruby.network.routers0.throttle1.msg_count.Response_Control::2      1660171                      
system.ruby.network.routers0.throttle1.msg_count.Writeback_Data::0       754673                      
system.ruby.network.routers0.throttle1.msg_count.Writeback_Data::1          454                      
system.ruby.network.routers0.throttle1.msg_count.Writeback_Control::0       904003                      
system.ruby.network.routers0.throttle1.msg_bytes.Control::0     19213104                      
system.ruby.network.routers0.throttle1.msg_bytes.Response_Control::1        30912                      
system.ruby.network.routers0.throttle1.msg_bytes.Response_Control::2     13281368                      
system.ruby.network.routers0.throttle1.msg_bytes.Writeback_Data::0     54336456                      
system.ruby.network.routers0.throttle1.msg_bytes.Writeback_Data::1        32688                      
system.ruby.network.routers0.throttle1.msg_bytes.Writeback_Control::0      7232024                      
system.ruby.network.routers1.throttle0.link_utilization     0.080850                      
system.ruby.network.routers1.throttle0.msg_count.Control::0      2401638                      
system.ruby.network.routers1.throttle0.msg_count.Response_Data::1       555140                      
system.ruby.network.routers1.throttle0.msg_count.Response_Control::1       496075                      
system.ruby.network.routers1.throttle0.msg_count.Response_Control::2      1660171                      
system.ruby.network.routers1.throttle0.msg_count.Writeback_Data::0       754673                      
system.ruby.network.routers1.throttle0.msg_count.Writeback_Data::1          454                      
system.ruby.network.routers1.throttle0.msg_count.Writeback_Control::0       904003                      
system.ruby.network.routers1.throttle0.msg_bytes.Control::0     19213104                      
system.ruby.network.routers1.throttle0.msg_bytes.Response_Data::1     39970080                      
system.ruby.network.routers1.throttle0.msg_bytes.Response_Control::1      3968600                      
system.ruby.network.routers1.throttle0.msg_bytes.Response_Control::2     13281368                      
system.ruby.network.routers1.throttle0.msg_bytes.Writeback_Data::0     54336456                      
system.ruby.network.routers1.throttle0.msg_bytes.Writeback_Data::1        32688                      
system.ruby.network.routers1.throttle0.msg_bytes.Writeback_Control::0      7232024                      
system.ruby.network.routers1.throttle1.link_utilization     0.131695                      
system.ruby.network.routers1.throttle1.msg_count.Control::0       555140                      
system.ruby.network.routers1.throttle1.msg_count.Request_Control::2         4318                      
system.ruby.network.routers1.throttle1.msg_count.Response_Data::1      2874406                      
system.ruby.network.routers1.throttle1.msg_count.Response_Control::1      1676141                      
system.ruby.network.routers1.throttle1.msg_bytes.Control::0      4441120                      
system.ruby.network.routers1.throttle1.msg_bytes.Request_Control::2        34544                      
system.ruby.network.routers1.throttle1.msg_bytes.Response_Data::1    206957232                      
system.ruby.network.routers1.throttle1.msg_bytes.Response_Control::1     13409128                      
system.ruby.network.routers2.throttle0.link_utilization     0.022826                      
system.ruby.network.routers2.throttle0.msg_count.Control::0       555140                      
system.ruby.network.routers2.throttle0.msg_count.Response_Data::1       472768                      
system.ruby.network.routers2.throttle0.msg_count.Response_Control::1        17465                      
system.ruby.network.routers2.throttle0.msg_count.Writeback_Control::0        43874                      
system.ruby.network.routers2.throttle0.msg_bytes.Control::0      4441120                      
system.ruby.network.routers2.throttle0.msg_bytes.Response_Data::1     34039296                      
system.ruby.network.routers2.throttle0.msg_bytes.Response_Control::1       139720                      
system.ruby.network.routers2.throttle0.msg_bytes.Writeback_Control::0       350992                      
system.ruby.network.routers2.throttle1.link_utilization     0.025952                      
system.ruby.network.routers2.throttle1.msg_count.Response_Data::1       555894                      
system.ruby.network.routers2.throttle1.msg_count.Response_Control::1       492211                      
system.ruby.network.routers2.throttle1.msg_count.Writeback_Control::1        43120                      
system.ruby.network.routers2.throttle1.msg_bytes.Response_Data::1     40024368                      
system.ruby.network.routers2.throttle1.msg_bytes.Response_Control::1      3937688                      
system.ruby.network.routers2.throttle1.msg_bytes.Writeback_Control::1       344960                      
system.ruby.network.routers3.throttle0.link_utilization     0.000234                      
system.ruby.network.routers3.throttle0.msg_count.Response_Data::1          754                      
system.ruby.network.routers3.throttle0.msg_count.Writeback_Control::1        43120                      
system.ruby.network.routers3.throttle0.msg_bytes.Response_Data::1        54288                      
system.ruby.network.routers3.throttle0.msg_bytes.Writeback_Control::1       344960                      
system.ruby.network.routers3.throttle1.link_utilization     0.000206                      
system.ruby.network.routers3.throttle1.msg_count.Writeback_Control::0        43874                      
system.ruby.network.routers3.throttle1.msg_bytes.Writeback_Control::0       350992                      
system.ruby.network.routers4.throttle0.link_utilization            0                      
system.ruby.network.routers4.throttle1.link_utilization            0                      
system.ruby.network.routers5.throttle0.link_utilization     0.109074                      
system.ruby.network.routers5.throttle0.msg_count.Request_Control::2         4318                      
system.ruby.network.routers5.throttle0.msg_count.Response_Data::1      2401638                      
system.ruby.network.routers5.throttle0.msg_count.Response_Control::1      1658676                      
system.ruby.network.routers5.throttle0.msg_bytes.Request_Control::2        34544                      
system.ruby.network.routers5.throttle0.msg_bytes.Response_Data::1    172917936                      
system.ruby.network.routers5.throttle0.msg_bytes.Response_Control::1     13269408                      
system.ruby.network.routers5.throttle1.link_utilization     0.080850                      
system.ruby.network.routers5.throttle1.msg_count.Control::0      2401638                      
system.ruby.network.routers5.throttle1.msg_count.Response_Data::1       555140                      
system.ruby.network.routers5.throttle1.msg_count.Response_Control::1       496075                      
system.ruby.network.routers5.throttle1.msg_count.Response_Control::2      1660171                      
system.ruby.network.routers5.throttle1.msg_count.Writeback_Data::0       754673                      
system.ruby.network.routers5.throttle1.msg_count.Writeback_Data::1          454                      
system.ruby.network.routers5.throttle1.msg_count.Writeback_Control::0       904003                      
system.ruby.network.routers5.throttle1.msg_bytes.Control::0     19213104                      
system.ruby.network.routers5.throttle1.msg_bytes.Response_Data::1     39970080                      
system.ruby.network.routers5.throttle1.msg_bytes.Response_Control::1      3968600                      
system.ruby.network.routers5.throttle1.msg_bytes.Response_Control::2     13281368                      
system.ruby.network.routers5.throttle1.msg_bytes.Writeback_Data::0     54336456                      
system.ruby.network.routers5.throttle1.msg_bytes.Writeback_Data::1        32688                      
system.ruby.network.routers5.throttle1.msg_bytes.Writeback_Control::0      7232024                      
system.ruby.network.routers5.throttle2.link_utilization     0.022826                      
[...]
system.ruby.LD.latency_hist::total             168595                      
system.ruby.LD.hit_latency_hist::bucket_size            1                      
system.ruby.LD.hit_latency_hist::max_bucket            9                      
system.ruby.LD.hit_latency_hist::samples       165353                      
system.ruby.LD.hit_latency_hist::mean               3                      
system.ruby.LD.hit_latency_hist::gmean       3.000000                      
system.ruby.LD.hit_latency_hist          |           0      0.00%      0.00% |           0      0.00%      0.00% |           0      0.00%      0.00% |      165353    100.00%    100.00% |           0      0.00%    100.00% |           0      0.00%    100.00% |           0      0.00%    100.00% |           0      0.00%    100.00% |           0      0.00%    100.00% |           0      0.00%    100.00%
system.ruby.LD.hit_latency_hist::total         165353                      
system.ruby.LD.miss_latency_hist::bucket_size           64                      
system.ruby.LD.miss_latency_hist::max_bucket          639                      
system.ruby.LD.miss_latency_hist::samples         3242                      
system.ruby.LD.miss_latency_hist::mean      22.508637                      
system.ruby.LD.miss_latency_hist::gmean     21.571867                      
system.ruby.LD.miss_latency_hist::stdev     16.264706                      
system.ruby.LD.miss_latency_hist         |        3217     99.23%     99.23% |           8      0.25%     99.48% |          15      0.46%     99.94% |           0      0.00%     99.94% |           0      0.00%     99.94% |           0      0.00%     99.94% |           1      0.03%     99.97% |           0      0.00%     99.97% |           0      0.00%     99.97% |           1      0.03%    100.00%
system.ruby.LD.miss_latency_hist::total          3242                      
system.ruby.ST.latency_hist::bucket_size          128                      
system.ruby.ST.latency_hist::max_bucket          1279                      
system.ruby.ST.latency_hist::samples           117519                      
system.ruby.ST.latency_hist::mean            3.718999                      
system.ruby.ST.latency_hist::gmean           3.189372                      
system.ruby.ST.latency_hist::stdev           7.326348                      
system.ruby.ST.latency_hist              |      117501     99.98%     99.98% |           9      0.01%     99.99% |           1      0.00%     99.99% |           2      0.00%     99.99% |           3      0.00%    100.00% |           2      0.00%    100.00% |           0      0.00%    100.00% |           1      0.00%    100.00% |           0      0.00%    100.00% |           0      0.00%    100.00%
system.ruby.ST.latency_hist::total             117519                      
system.ruby.ST.hit_latency_hist::bucket_size            1                      
system.ruby.ST.hit_latency_hist::max_bucket            9                      
system.ruby.ST.hit_latency_hist::samples       114023                      
system.ruby.ST.hit_latency_hist::mean               3                      
system.ruby.ST.hit_latency_hist::gmean       3.000000                      
system.ruby.ST.hit_latency_hist          |           0      0.00%      0.00% |           0      0.00%      0.00% |           0      0.00%      0.00% |      114023    100.00%    100.00% |           0      0.00%    100.00% |           0      0.00%    100.00% |           0      0.00%    100.00% |           0      0.00%    100.00% |           0      0.00%    100.00% |           0      0.00%    100.00%
system.ruby.ST.hit_latency_hist::total         114023                      
system.ruby.ST.miss_latency_hist::bucket_size          128                      
system.ruby.ST.miss_latency_hist::max_bucket         1279                      
system.ruby.ST.miss_latency_hist::samples         3496                      
system.ruby.ST.miss_latency_hist::mean      27.169336                      
system.ruby.ST.miss_latency_hist::gmean     23.482590                      
system.ruby.ST.miss_latency_hist::stdev     35.183410                      
system.ruby.ST.miss_latency_hist         |        3478     99.49%     99.49% |           9      0.26%     99.74% |           1      0.03%     99.77% |           2      0.06%     99.83% |           3      0.09%     99.91% |           2      0.06%     99.97% |           0      0.00%     99.97% |           1      0.03%    100.00% |           0      0.00%    100.00% |           0      0.00%    100.00%
system.ruby.ST.miss_latency_hist::total          3496                      
system.ruby.IFETCH.latency_hist::bucket_size          128                      
system.ruby.IFETCH.latency_hist::max_bucket         1279                      
system.ruby.IFETCH.latency_hist::samples       823217                      
system.ruby.IFETCH.latency_hist::mean        3.165410                      
system.ruby.IFETCH.latency_hist::gmean       3.048076                      
system.ruby.IFETCH.latency_hist::stdev       3.114497                      
system.ruby.IFETCH.latency_hist          |      823144     99.99%     99.99% |          60      0.01%    100.00% |           1      0.00%    100.00% |           6      0.00%    100.00% |           5      0.00%    100.00% |           1      0.00%    100.00% |           0      0.00%    100.00% |           0      0.00%    100.00% |           0      0.00%    100.00% |           0      0.00%    100.00%
system.ruby.IFETCH.latency_hist::total         823217                      
system.ruby.IFETCH.hit_latency_hist::bucket_size            1                      
system.ruby.IFETCH.hit_latency_hist::max_bucket            9                      
system.ruby.IFETCH.hit_latency_hist::samples       816337                      
system.ruby.IFETCH.hit_latency_hist::mean            3                      
system.ruby.IFETCH.hit_latency_hist::gmean     3.000000                      
system.ruby.IFETCH.hit_latency_hist      |           0      0.00%      0.00% |           0      0.00%      0.00% |           0      0.00%      0.00% |      816337    100.00%    100.00% |           0      0.00%    100.00% |           0      0.00%    100.00% |           0      0.00%    100.00% |           0      0.00%    100.00% |           0      0.00%    100.00% |           0      0.00%    100.00%
system.ruby.IFETCH.hit_latency_hist::total       816337                      
system.ruby.IFETCH.miss_latency_hist::bucket_size          128                      
system.ruby.IFETCH.miss_latency_hist::max_bucket         1279                      
system.ruby.IFETCH.miss_latency_hist::samples         6880                      
system.ruby.IFETCH.miss_latency_hist::mean    22.791860                      
system.ruby.IFETCH.miss_latency_hist::gmean    20.103842                      
system.ruby.IFETCH.miss_latency_hist::stdev    27.790611                      
system.ruby.IFETCH.miss_latency_hist     |        6807     98.94%     98.94% |          60      0.87%     99.81% |           1      0.01%     99.83% |           6      0.09%     99.91% |           5      0.07%     99.99% |           1      0.01%    100.00% |           0      0.00%    100.00% |           0      0.00%    100.00% |           0      0.00%    100.00% |           0      0.00%    100.00%
system.ruby.IFETCH.miss_latency_hist::total         6880                      
system.ruby.RMW_Read.latency_hist::bucket_size           16                      
system.ruby.RMW_Read.latency_hist::max_bucket          159                      
system.ruby.RMW_Read.latency_hist::samples        10480                      
system.ruby.RMW_Read.latency_hist::mean      3.392080                      
system.ruby.RMW_Read.latency_hist::gmean     3.125038                      
system.ruby.RMW_Read.latency_hist::stdev     2.973913                      
system.ruby.RMW_Read.latency_hist        |       10262     97.92%     97.92% |         217      2.07%     99.99% |           0      0.00%     99.99% |           0      0.00%     99.99% |           0      0.00%     99.99% |           0      0.00%     99.99% |           0      0.00%     99.99% |           0      0.00%     99.99% |           0      0.00%     99.99% |           1      0.01%    100.00%
system.ruby.RMW_Read.latency_hist::total        10480                      
system.ruby.RMW_Read.hit_latency_hist::bucket_size            1                      
system.ruby.RMW_Read.hit_latency_hist::max_bucket            9                      
system.ruby.RMW_Read.hit_latency_hist::samples        10262                      
system.ruby.RMW_Read.hit_latency_hist::mean            3                      
system.ruby.RMW_Read.hit_latency_hist::gmean     3.000000                      
system.ruby.RMW_Read.hit_latency_hist    |           0      0.00%      0.00% |           0      0.00%      0.00% |           0      0.00%      0.00% |       10262    100.00%    100.00% |           0      0.00%    100.00% |           0      0.00%    100.00% |           0      0.00%    100.00% |           0      0.00%    100.00% |           0      0.00%    100.00% |           0      0.00%    100.00%
system.ruby.RMW_Read.hit_latency_hist::total        10262                      
system.ruby.RMW_Read.miss_latency_hist::bucket_size           16                      
system.ruby.RMW_Read.miss_latency_hist::max_bucket          159                      
system.ruby.RMW_Read.miss_latency_hist::samples          218                      
system.ruby.RMW_Read.miss_latency_hist::mean    21.848624                      
system.ruby.RMW_Read.miss_latency_hist::gmean    21.362832                      
system.ruby.RMW_Read.miss_latency_hist::stdev     8.809297                      
system.ruby.RMW_Read.miss_latency_hist   |           0      0.00%      0.00% |         217     99.54%     99.54% |           0      0.00%     99.54% |           0      0.00%     99.54% |           0      0.00%     99.54% |           0      0.00%     99.54% |           0      0.00%     99.54% |           0      0.00%     99.54% |           0      0.00%     99.54% |           1      0.46%    100.00%
system.ruby.RMW_Read.miss_latency_hist::total          218                      
system.ruby.Locked_RMW_Read.latency_hist::bucket_size            2                      
system.ruby.Locked_RMW_Read.latency_hist::max_bucket           19                      
system.ruby.Locked_RMW_Read.latency_hist::samples          242                      
system.ruby.Locked_RMW_Read.latency_hist::mean     3.066116                      
system.ruby.Locked_RMW_Read.latency_hist::gmean     3.022970                      
system.ruby.Locked_RMW_Read.latency_hist::stdev     1.028519                      
system.ruby.Locked_RMW_Read.latency_hist |           0      0.00%      0.00% |         241     99.59%     99.59% |           0      0.00%     99.59% |           0      0.00%     99.59% |           0      0.00%     99.59% |           0      0.00%     99.59% |           0      0.00%     99.59% |           0      0.00%     99.59% |           0      0.00%     99.59% |           1      0.41%    100.00%
system.ruby.Locked_RMW_Read.latency_hist::total          242                      
system.ruby.Locked_RMW_Read.hit_latency_hist::bucket_size            1                      
system.ruby.Locked_RMW_Read.hit_latency_hist::max_bucket            9                      
system.ruby.Locked_RMW_Read.hit_latency_hist::samples          241                      
system.ruby.Locked_RMW_Read.hit_latency_hist::mean            3                      
system.ruby.Locked_RMW_Read.hit_latency_hist::gmean     3.000000                      
system.ruby.Locked_RMW_Read.hit_latency_hist |           0      0.00%      0.00% |           0      0.00%      0.00% |           0      0.00%      0.00% |         241    100.00%    100.00% |           0      0.00%    100.00% |           0      0.00%    100.00% |           0      0.00%    100.00% |           0      0.00%    100.00% |           0      0.00%    100.00% |           0      0.00%    100.00%
system.ruby.Locked_RMW_Read.hit_latency_hist::total          241                      
system.ruby.Locked_RMW_Read.miss_latency_hist::bucket_size            2                      
system.ruby.Locked_RMW_Read.miss_latency_hist::max_bucket           19                      
system.ruby.Locked_RMW_Read.miss_latency_hist::samples            1                      
system.ruby.Locked_RMW_Read.miss_latency_hist::mean           19                      
system.ruby.Locked_RMW_Read.miss_latency_hist::gmean    19.000000                      
system.ruby.Locked_RMW_Read.miss_latency_hist::stdev          nan                      
system.ruby.Locked_RMW_Read.miss_latency_hist |           0      0.00%      0.00% |           0      0.00%      0.00% |           0      0.00%      0.00% |           0      0.00%      0.00% |           0      0.00%      0.00% |           0      0.00%      0.00% |           0      0.00%      0.00% |           0      0.00%      0.00% |           0      0.00%      0.00% |           1    100.00%    100.00%
system.ruby.Locked_RMW_Read.miss_latency_hist::total            1                      
system.ruby.Locked_RMW_Write.latency_hist::bucket_size            1                      
system.ruby.Locked_RMW_Write.latency_hist::max_bucket            9                      
system.ruby.Locked_RMW_Write.latency_hist::samples          242                      
system.ruby.Locked_RMW_Write.latency_hist::mean            3                      
system.ruby.Locked_RMW_Write.latency_hist::gmean     3.000000                      
system.ruby.Locked_RMW_Write.latency_hist |           0      0.00%      0.00% |           0      0.00%      0.00% |           0      0.00%      0.00% |         242    100.00%    100.00% |           0      0.00%    100.00% |           0      0.00%    100.00% |           0      0.00%    100.00% |           0      0.00%    100.00% |           0      0.00%    100.00% |           0      0.00%    100.00%
system.ruby.Locked_RMW_Write.latency_hist::total          242                      
system.ruby.Locked_RMW_Write.hit_latency_hist::bucket_size            1                      
system.ruby.Locked_RMW_Write.hit_latency_hist::max_bucket            9                      
system.ruby.Locked_RMW_Write.hit_latency_hist::samples          242                      
system.ruby.Locked_RMW_Write.hit_latency_hist::mean            3                      
system.ruby.Locked_RMW_Write.hit_latency_hist::gmean     3.000000                      
system.ruby.Locked_RMW_Write.hit_latency_hist |           0      0.00%      0.00% |           0      0.00%      0.00% |           0      0.00%      0.00% |         242    100.00%    100.00% |           0      0.00%    100.00% |           0      0.00%    100.00% |           0      0.00%    100.00% |           0      0.00%    100.00% |           0      0.00%    100.00% |           0      0.00%    100.00%
system.ruby.Locked_RMW_Write.hit_latency_hist::total          242                      
system.ruby.Directory_Controller.Fetch            371      0.00%      0.00%
system.ruby.Directory_Controller.Data             266      0.00%      0.00%
system.ruby.Directory_Controller.Memory_Data          371      0.00%      0.00%
system.ruby.Directory_Controller.Memory_Ack          266      0.00%      0.00%
system.ruby.Directory_Controller.CleanReplacement           33      0.00%      0.00%
system.ruby.Directory_Controller.I.Fetch          371      0.00%      0.00%
system.ruby.Directory_Controller.M.Data           266      0.00%      0.00%
system.ruby.Directory_Controller.M.CleanReplacement           33      0.00%      0.00%
system.ruby.Directory_Controller.IM.Memory_Data          371      0.00%      0.00%
system.ruby.Directory_Controller.MI.Memory_Ack          266      0.00%      0.00%
system.ruby.L1Cache_Controller.Load            168595      0.00%      0.00%
system.ruby.L1Cache_Controller.Ifetch          823217      0.00%      0.00%
system.ruby.L1Cache_Controller.Store           128483      0.00%      0.00%
system.ruby.L1Cache_Controller.Inv                 15      0.00%      0.00%
system.ruby.L1Cache_Controller.L1_Replacement        13837      0.00%      0.00%
system.ruby.L1Cache_Controller.Data_Exclusive         3242      0.00%      0.00%
system.ruby.L1Cache_Controller.Data_all_Acks        10595      0.00%      0.00%
system.ruby.L1Cache_Controller.WB_Ack            6957      0.00%      0.00%
system.ruby.L1Cache_Controller.NP.Load           3242      0.00%      0.00%
system.ruby.L1Cache_Controller.NP.Ifetch         6880      0.00%      0.00%
system.ruby.L1Cache_Controller.NP.Store          3715      0.00%      0.00%
system.ruby.L1Cache_Controller.NP.Inv              15      0.00%      0.00%
system.ruby.L1Cache_Controller.S.Ifetch        816337      0.00%      0.00%
system.ruby.L1Cache_Controller.S.L1_Replacement         6880      0.00%      0.00%
system.ruby.L1Cache_Controller.E.Load           33074      0.00%      0.00%
system.ruby.L1Cache_Controller.E.Store            998      0.00%      0.00%
system.ruby.L1Cache_Controller.E.L1_Replacement         2499      0.00%      0.00%
system.ruby.L1Cache_Controller.M.Load          132279      0.00%      0.00%
system.ruby.L1Cache_Controller.M.Store         123770      0.00%      0.00%
system.ruby.L1Cache_Controller.M.L1_Replacement         4458      0.00%      0.00%
system.ruby.L1Cache_Controller.IS.Data_Exclusive         3242      0.00%      0.00%
system.ruby.L1Cache_Controller.IS.Data_all_Acks         6880      0.00%      0.00%
system.ruby.L1Cache_Controller.IM.Data_all_Acks         3715      0.00%      0.00%
system.ruby.L1Cache_Controller.M_I.WB_Ack         6957      0.00%      0.00%
system.ruby.L2Cache_Controller.L1_GET_INSTR         6880      0.00%      0.00%
system.ruby.L2Cache_Controller.L1_GETS           3242      0.00%      0.00%
system.ruby.L2Cache_Controller.L1_GETX           3715      0.00%      0.00%
system.ruby.L2Cache_Controller.L1_PUTX           6957      0.00%      0.00%
system.ruby.L2Cache_Controller.L2_Replacement          266      0.00%      0.00%
system.ruby.L2Cache_Controller.L2_Replacement_clean           33      0.00%      0.00%
system.ruby.L2Cache_Controller.Mem_Data           371      0.00%      0.00%
system.ruby.L2Cache_Controller.Mem_Ack            299      0.00%      0.00%
system.ruby.L2Cache_Controller.Ack_all             15      0.00%      0.00%
system.ruby.L2Cache_Controller.Exclusive_Unblock         6957      0.00%      0.00%
system.ruby.L2Cache_Controller.NP.L1_GET_INSTR          196      0.00%      0.00%
system.ruby.L2Cache_Controller.NP.L1_GETS           25      0.00%      0.00%
system.ruby.L2Cache_Controller.NP.L1_GETX          150      0.00%      0.00%
system.ruby.L2Cache_Controller.SS.L1_GET_INSTR         6684      0.00%      0.00%
system.ruby.L2Cache_Controller.SS.L2_Replacement_clean           15      0.00%      0.00%
system.ruby.L2Cache_Controller.M.L1_GETS         3217      0.00%      0.00%
system.ruby.L2Cache_Controller.M.L1_GETX         3565      0.00%      0.00%
system.ruby.L2Cache_Controller.M.L2_Replacement          266      0.00%      0.00%
system.ruby.L2Cache_Controller.M.L2_Replacement_clean           18      0.00%      0.00%
system.ruby.L2Cache_Controller.MT.L1_PUTX         6957      0.00%      0.00%
system.ruby.L2Cache_Controller.M_I.Mem_Ack          299      0.00%      0.00%
system.ruby.L2Cache_Controller.I_I.Ack_all           15      0.00%      0.00%
system.ruby.L2Cache_Controller.ISS.Mem_Data           25      0.00%      0.00%
system.ruby.L2Cache_Controller.IS.Mem_Data          196      0.00%      0.00%
system.ruby.L2Cache_Controller.IM.Mem_Data          150      0.00%      0.00%
system.ruby.L2Cache_Controller.MT_MB.Exclusive_Unblock         6957      0.00%      0.00%

---------- End Simulation Statistics   ----------
