
---------- Begin Simulation Statistics ----------
sim_seconds                                  5.335306                       # Number of seconds simulated
sim_ticks                                5335306116000                       # Number of ticks simulated
final_tick                               5335306116000                       # Number of ticks from beginning of simulation (restored from checkpoints and never reset)
sim_freq                                 1000000000000                       # Frequency of simulated ticks
host_inst_rate                                 377898                       # Simulator instruction rate (inst/s)
host_op_rate                                   738896                       # Simulator op (including micro ops) rate (op/s)
host_tick_rate                            21358713605                       # Simulator tick rate (ticks/s)
host_mem_usage                                1125204                       # Number of bytes of host memory used
host_seconds                                   249.80                       # Real time elapsed on the host
sim_insts                                    94397074                       # Number of instructions simulated
sim_ops                                     184572816                       # Number of ops (including micro ops) simulated
system.voltage_domain.voltage                       1                       # Voltage in Volts
system.clk_domain.clock                          1000                       # Clock period in ticks
system.mem_ctrls.bytes_read::ruby.dir_cntrl0     35568128                       # Number of bytes read from this memory
system.mem_ctrls.bytes_read::total           35568128                       # Number of bytes read from this memory
system.mem_ctrls.bytes_written::ruby.dir_cntrl0     32899456                       # Number of bytes written to this memory
system.mem_ctrls.bytes_written::total        32899456                       # Number of bytes written to this memory
system.mem_ctrls.num_reads::ruby.dir_cntrl0       555752                       # Number of read requests responded to by this memory
system.mem_ctrls.num_reads::total              555752                       # Number of read requests responded to by this memory
system.mem_ctrls.num_writes::ruby.dir_cntrl0       514054                       # Number of write requests responded to by this memory
system.mem_ctrls.num_writes::total             514054                       # Number of write requests responded to by this memory
system.mem_ctrls.bw_read::ruby.dir_cntrl0      6666558                       # Total read bandwidth from this memory (bytes/s)
system.mem_ctrls.bw_read::total               6666558                       # Total read bandwidth from this memory (bytes/s)
system.mem_ctrls.bw_write::ruby.dir_cntrl0      6166367                       # Write bandwidth from this memory (bytes/s)
system.mem_ctrls.bw_write::total              6166367                       # Write bandwidth from this memory (bytes/s)
system.mem_ctrls.bw_total::ruby.dir_cntrl0     12832925                       # Total bandwidth to/from this memory (bytes/s)
system.mem_ctrls.bw_total::total             12832925                       # Total bandwidth to/from this memory (bytes/s)
system.mem_ctrls.readReqs                      555752                       # Number of read requests accepted
system.mem_ctrls.writeReqs                     514054                       # Number of write requests accepted
system.mem_ctrls.readBursts                    555752                       # Number of DRAM read bursts, including those serviced by the write queue
system.mem_ctrls.writeBursts                   514054                       # Number of DRAM write bursts, including those merged in the write queue
system.mem_ctrls.bytesReadDRAM               35565440                       # Total number of bytes read from DRAM
system.mem_ctrls.bytesReadWrQ                    2688                       # Total number of bytes read from write queue
system.mem_ctrls.bytesWritten                32897728                       # Total number of bytes written to DRAM
system.mem_ctrls.bytesReadSys                35568128                       # Total read bytes from the system interface side
system.mem_ctrls.bytesWrittenSys             32899456                       # Total written bytes from the system interface side
system.mem_ctrls.servicedByWrQ                     42                       # Number of DRAM read bursts serviced by the write queue
system.mem_ctrls.mergedWrBursts                     5                       # Number of DRAM write bursts merged with an existing one
system.mem_ctrls.neitherReadNorWriteReqs            0                       # Number of requests that are neither read nor write
system.mem_ctrls.perBankRdBursts::0             33869                       # Per bank write bursts
system.mem_ctrls.perBankRdBursts::1             34034                       # Per bank write bursts
system.mem_ctrls.perBankRdBursts::2             34204                       # Per bank write bursts
system.mem_ctrls.perBankRdBursts::3             34281                       # Per bank write bursts
system.mem_ctrls.perBankRdBursts::4             34814                       # Per bank write bursts
system.mem_ctrls.perBankRdBursts::5             34806                       # Per bank write bursts
system.mem_ctrls.perBankRdBursts::6             35426                       # Per bank write bursts
system.mem_ctrls.perBankRdBursts::7             35218                       # Per bank write bursts
system.mem_ctrls.perBankRdBursts::8             34965                       # Per bank write bursts
system.mem_ctrls.perBankRdBursts::9             34554                       # Per bank write bursts
system.mem_ctrls.perBankRdBursts::10            34773                       # Per bank write bursts
system.mem_ctrls.perBankRdBursts::11            35424                       # Per bank write bursts
system.mem_ctrls.perBankRdBursts::12            35423                       # Per bank write bursts
system.mem_ctrls.perBankRdBursts::13            35114                       # Per bank write bursts
system.mem_ctrls.perBankRdBursts::14            34466                       # Per bank write bursts
system.mem_ctrls.perBankRdBursts::15            34339                       # Per bank write bursts
system.mem_ctrls.perBankWrBursts::0             31641                       # Per bank write bursts
system.mem_ctrls.perBankWrBursts::1             31558                       # Per bank write bursts
system.mem_ctrls.perBankWrBursts::2             31775                       # Per bank write bursts
system.mem_ctrls.perBankWrBursts::3             32119                       # Per bank write bursts
system.mem_ctrls.perBankWrBursts::4             32438                       # Per bank write bursts
system.mem_ctrls.perBankWrBursts::5             32171                       # Per bank write bursts
system.mem_ctrls.perBankWrBursts::6             32598                       # Per bank write bursts
system.mem_ctrls.perBankWrBursts::7             32446                       # Per bank write bursts
system.mem_ctrls.perBankWrBursts::8             32085                       # Per bank write bursts
system.mem_ctrls.perBankWrBursts::9             31889                       # Per bank write bursts
system.mem_ctrls.perBankWrBursts::10            32273                       # Per bank write bursts
system.mem_ctrls.perBankWrBursts::11            32291                       # Per bank write bursts
system.mem_ctrls.perBankWrBursts::12            32636                       # Per bank write bursts
system.mem_ctrls.perBankWrBursts::13            32304                       # Per bank write bursts
system.mem_ctrls.perBankWrBursts::14            32008                       # Per bank write bursts
system.mem_ctrls.perBankWrBursts::15            31795                       # Per bank write bursts
system.mem_ctrls.numRdRetry                         0                       # Number of times read queue was full causing retry
system.mem_ctrls.numWrRetry                         0                       # Number of times write queue was full causing retry
system.mem_ctrls.totGap                  5335305963000                       # Total gap between requests
system.mem_ctrls.readPktSize::0                     0                       # Read request sizes (log2)
system.mem_ctrls.readPktSize::1                     0                       # Read request sizes (log2)
system.mem_ctrls.readPktSize::2                     0                       # Read request sizes (log2)
system.mem_ctrls.readPktSize::3                     0                       # Read request sizes (log2)
system.mem_ctrls.readPktSize::4                     0                       # Read request sizes (log2)
system.mem_ctrls.readPktSize::5                     0                       # Read request sizes (log2)
system.mem_ctrls.readPktSize::6                555752                       # Read request sizes (log2)
system.mem_ctrls.writePktSize::0                    0                       # Write request sizes (log2)
system.mem_ctrls.writePktSize::1                    0                       # Write request sizes (log2)
system.mem_ctrls.writePktSize::2                    0                       # Write request sizes (log2)
system.mem_ctrls.writePktSize::3                    0                       # Write request sizes (log2)
system.mem_ctrls.writePktSize::4                    0                       # Write request sizes (log2)
system.mem_ctrls.writePktSize::5                    0                       # Write request sizes (log2)
system.mem_ctrls.writePktSize::6               514054                       # Write request sizes (log2)
system.mem_ctrls.rdQLenPdf::0                  555703                       # What read queue length does an incoming req see
system.mem_ctrls.rdQLenPdf::1                       7                       # What read queue length does an incoming req see
system.mem_ctrls.rdQLenPdf::2                       0                       # What read queue length does an incoming req see
system.mem_ctrls.rdQLenPdf::3                       0                       # What read queue length does an incoming req see
system.mem_ctrls.rdQLenPdf::4                       0                       # What read queue length does an incoming req see
system.mem_ctrls.rdQLenPdf::5                       0                       # What read queue length does an incoming req see
system.mem_ctrls.rdQLenPdf::6                       0                       # What read queue length does an incoming req see
system.mem_ctrls.rdQLenPdf::7                       0                       # What read queue length does an incoming req see
system.mem_ctrls.rdQLenPdf::8                       0                       # What read queue length does an incoming req see
system.mem_ctrls.rdQLenPdf::9                       0                       # What read queue length does an incoming req see
system.mem_ctrls.rdQLenPdf::10                      0                       # What read queue length does an incoming req see
system.mem_ctrls.rdQLenPdf::11                      0                       # What read queue length does an incoming req see
system.mem_ctrls.rdQLenPdf::12                      0                       # What read queue length does an incoming req see
system.mem_ctrls.rdQLenPdf::13                      0                       # What read queue length does an incoming req see
system.mem_ctrls.rdQLenPdf::14                      0                       # What read queue length does an incoming req see
system.mem_ctrls.rdQLenPdf::15                      0                       # What read queue length does an incoming req see
system.mem_ctrls.rdQLenPdf::16                      0                       # What read queue length does an incoming req see
system.mem_ctrls.rdQLenPdf::17                      0                       # What read queue length does an incoming req see
system.mem_ctrls.rdQLenPdf::18                      0                       # What read queue length does an incoming req see
system.mem_ctrls.rdQLenPdf::19                      0                       # What read queue length does an incoming req see
system.mem_ctrls.rdQLenPdf::20                      0                       # What read queue length does an incoming req see
system.mem_ctrls.rdQLenPdf::21                      0                       # What read queue length does an incoming req see
system.mem_ctrls.rdQLenPdf::22                      0                       # What read queue length does an incoming req see
system.mem_ctrls.rdQLenPdf::23                      0                       # What read queue length does an incoming req see
system.mem_ctrls.rdQLenPdf::24                      0                       # What read queue length does an incoming req see
system.mem_ctrls.rdQLenPdf::25                      0                       # What read queue length does an incoming req see
system.mem_ctrls.rdQLenPdf::26                      0                       # What read queue length does an incoming req see
system.mem_ctrls.rdQLenPdf::27                      0                       # What read queue length does an incoming req see
system.mem_ctrls.rdQLenPdf::28                      0                       # What read queue length does an incoming req see
system.mem_ctrls.rdQLenPdf::29                      0                       # What read queue length does an incoming req see
system.mem_ctrls.rdQLenPdf::30                      0                       # What read queue length does an incoming req see
system.mem_ctrls.rdQLenPdf::31                      0                       # What read queue length does an incoming req see
system.mem_ctrls.wrQLenPdf::0                       1                       # What write queue length does an incoming req see
system.mem_ctrls.wrQLenPdf::1                       1                       # What write queue length does an incoming req see
system.mem_ctrls.wrQLenPdf::2                       1                       # What write queue length does an incoming req see
system.mem_ctrls.wrQLenPdf::3                       1                       # What write queue length does an incoming req see
system.mem_ctrls.wrQLenPdf::4                       1                       # What write queue length does an incoming req see
system.mem_ctrls.wrQLenPdf::5                       1                       # What write queue length does an incoming req see
system.mem_ctrls.wrQLenPdf::6                       1                       # What write queue length does an incoming req see
system.mem_ctrls.wrQLenPdf::7                       1                       # What write queue length does an incoming req see
system.mem_ctrls.wrQLenPdf::8                       1                       # What write queue length does an incoming req see
system.mem_ctrls.wrQLenPdf::9                       1                       # What write queue length does an incoming req see
system.mem_ctrls.wrQLenPdf::10                      1                       # What write queue length does an incoming req see
system.mem_ctrls.wrQLenPdf::11                      1                       # What write queue length does an incoming req see
system.mem_ctrls.wrQLenPdf::12                      1                       # What write queue length does an incoming req see
system.mem_ctrls.wrQLenPdf::13                      1                       # What write queue length does an incoming req see
system.mem_ctrls.wrQLenPdf::14                      1                       # What write queue length does an incoming req see
system.mem_ctrls.wrQLenPdf::15                   1945                       # What write queue length does an incoming req see
system.mem_ctrls.wrQLenPdf::16                   3011                       # What write queue length does an incoming req see
system.mem_ctrls.wrQLenPdf::17                  31648                       # What write queue length does an incoming req see
system.mem_ctrls.wrQLenPdf::18                  32268                       # What write queue length does an incoming req see
system.mem_ctrls.wrQLenPdf::19                  31832                       # What write queue length does an incoming req see
system.mem_ctrls.wrQLenPdf::20                  32356                       # What write queue length does an incoming req see
system.mem_ctrls.wrQLenPdf::21                  32316                       # What write queue length does an incoming req see
system.mem_ctrls.wrQLenPdf::22                  31592                       # What write queue length does an incoming req see
system.mem_ctrls.wrQLenPdf::23                  32240                       # What write queue length does an incoming req see
system.mem_ctrls.wrQLenPdf::24                  32261                       # What write queue length does an incoming req see
system.mem_ctrls.wrQLenPdf::25                  31664                       # What write queue length does an incoming req see
system.mem_ctrls.wrQLenPdf::26                  31727                       # What write queue length does an incoming req see
system.mem_ctrls.wrQLenPdf::27                  31602                       # What write queue length does an incoming req see
system.mem_ctrls.wrQLenPdf::28                  31680                       # What write queue length does an incoming req see
system.mem_ctrls.wrQLenPdf::29                  31287                       # What write queue length does an incoming req see
system.mem_ctrls.wrQLenPdf::30                  31338                       # What write queue length does an incoming req see
system.mem_ctrls.wrQLenPdf::31                  31393                       # What write queue length does an incoming req see
system.mem_ctrls.wrQLenPdf::32                  31209                       # What write queue length does an incoming req see
system.mem_ctrls.wrQLenPdf::33                    127                       # What write queue length does an incoming req see
system.mem_ctrls.wrQLenPdf::34                     99                       # What write queue length does an incoming req see
system.mem_ctrls.wrQLenPdf::35                     93                       # What write queue length does an incoming req see
system.mem_ctrls.wrQLenPdf::36                     78                       # What write queue length does an incoming req see
system.mem_ctrls.wrQLenPdf::37                     67                       # What write queue length does an incoming req see
system.mem_ctrls.wrQLenPdf::38                     53                       # What write queue length does an incoming req see
system.mem_ctrls.wrQLenPdf::39                     38                       # What write queue length does an incoming req see
system.mem_ctrls.wrQLenPdf::40                     38                       # What write queue length does an incoming req see
system.mem_ctrls.wrQLenPdf::41                     27                       # What write queue length does an incoming req see
system.mem_ctrls.wrQLenPdf::42                     17                       # What write queue length does an incoming req see
system.mem_ctrls.wrQLenPdf::43                     15                       # What write queue length does an incoming req see
system.mem_ctrls.wrQLenPdf::44                      7                       # What write queue length does an incoming req see
system.mem_ctrls.wrQLenPdf::45                      3                       # What write queue length does an incoming req see
system.mem_ctrls.wrQLenPdf::46                      3                       # What write queue length does an incoming req see
system.mem_ctrls.wrQLenPdf::47                      0                       # What write queue length does an incoming req see
system.mem_ctrls.wrQLenPdf::48                      0                       # What write queue length does an incoming req see
system.mem_ctrls.wrQLenPdf::49                      0                       # What write queue length does an incoming req see
system.mem_ctrls.wrQLenPdf::50                      0                       # What write queue length does an incoming req see
system.mem_ctrls.wrQLenPdf::51                      0                       # What write queue length does an incoming req see
system.mem_ctrls.wrQLenPdf::52                      0                       # What write queue length does an incoming req see
system.mem_ctrls.wrQLenPdf::53                      0                       # What write queue length does an incoming req see
system.mem_ctrls.wrQLenPdf::54                      0                       # What write queue length does an incoming req see
system.mem_ctrls.wrQLenPdf::55                      0                       # What write queue length does an incoming req see
system.mem_ctrls.wrQLenPdf::56                      0                       # What write queue length does an incoming req see
system.mem_ctrls.wrQLenPdf::57                      0                       # What write queue length does an incoming req see
system.mem_ctrls.wrQLenPdf::58                      0                       # What write queue length does an incoming req see
system.mem_ctrls.wrQLenPdf::59                      0                       # What write queue length does an incoming req see
system.mem_ctrls.wrQLenPdf::60                      0                       # What write queue length does an incoming req see
system.mem_ctrls.wrQLenPdf::61                      0                       # What write queue length does an incoming req see
system.mem_ctrls.wrQLenPdf::62                      0                       # What write queue length does an incoming req see
system.mem_ctrls.wrQLenPdf::63                      0                       # What write queue length does an incoming req see
system.mem_ctrls.bytesPerActivate::samples       161812                       # Bytes accessed per row activation
system.mem_ctrls.bytesPerActivate::mean    423.101179                       # Bytes accessed per row activation
system.mem_ctrls.bytesPerActivate::gmean   248.797685                       # Bytes accessed per row activation
system.mem_ctrls.bytesPerActivate::stdev   383.245421                       # Bytes accessed per row activation
system.mem_ctrls.bytesPerActivate::0-127        47565     29.40%     29.40% # Bytes accessed per row activation
system.mem_ctrls.bytesPerActivate::128-255        30796     19.03%     48.43% # Bytes accessed per row activation
system.mem_ctrls.bytesPerActivate::256-383        15412      9.52%     57.95% # Bytes accessed per row activation
system.mem_ctrls.bytesPerActivate::384-511         9099      5.62%     63.58% # Bytes accessed per row activation
system.mem_ctrls.bytesPerActivate::512-639         8578      5.30%     68.88% # Bytes accessed per row activation
system.mem_ctrls.bytesPerActivate::640-767         5452      3.37%     72.25% # Bytes accessed per row activation
system.mem_ctrls.bytesPerActivate::768-895         5193      3.21%     75.45% # Bytes accessed per row activation
system.mem_ctrls.bytesPerActivate::896-1023         4869      3.01%     78.46% # Bytes accessed per row activation
system.mem_ctrls.bytesPerActivate::1024-1151        34848     21.54%    100.00% # Bytes accessed per row activation
system.mem_ctrls.bytesPerActivate::total       161812                       # Bytes accessed per row activation
system.mem_ctrls.rdPerTurnAround::samples        31140                       # Reads before turning the bus around for writes
system.mem_ctrls.rdPerTurnAround::mean      17.845311                       # Reads before turning the bus around for writes
system.mem_ctrls.rdPerTurnAround::stdev    326.003526                       # Reads before turning the bus around for writes
system.mem_ctrls.rdPerTurnAround::0-2047        31139    100.00%    100.00% # Reads before turning the bus around for writes
system.mem_ctrls.rdPerTurnAround::57344-59391            1      0.00%    100.00% # Reads before turning the bus around for writes
system.mem_ctrls.rdPerTurnAround::total         31140                       # Reads before turning the bus around for writes
system.mem_ctrls.wrPerTurnAround::samples        31140                       # Writes before turning the bus around for reads
system.mem_ctrls.wrPerTurnAround::mean      16.506969                       # Writes before turning the bus around for reads
system.mem_ctrls.wrPerTurnAround::gmean     16.402686                       # Writes before turning the bus around for reads
system.mem_ctrls.wrPerTurnAround::stdev      2.262939                       # Writes before turning the bus around for reads
system.mem_ctrls.wrPerTurnAround::16-17         28977     93.05%     93.05% # Writes before turning the bus around for reads
system.mem_ctrls.wrPerTurnAround::18-19           431      1.38%     94.44% # Writes before turning the bus around for reads
system.mem_ctrls.wrPerTurnAround::20-21           454      1.46%     95.90% # Writes before turning the bus around for reads
system.mem_ctrls.wrPerTurnAround::22-23           174      0.56%     96.45% # Writes before turning the bus around for reads
system.mem_ctrls.wrPerTurnAround::24-25           713      2.29%     98.74% # Writes before turning the bus around for reads
system.mem_ctrls.wrPerTurnAround::26-27            31      0.10%     98.84% # Writes before turning the bus around for reads
system.mem_ctrls.wrPerTurnAround::28-29           276      0.89%     99.73% # Writes before turning the bus around for reads
system.mem_ctrls.wrPerTurnAround::30-31            11      0.04%     99.77% # Writes before turning the bus around for reads
system.mem_ctrls.wrPerTurnAround::32-33            11      0.04%     99.80% # Writes before turning the bus around for reads
system.mem_ctrls.wrPerTurnAround::34-35             2      0.01%     99.81% # Writes before turning the bus around for reads
system.mem_ctrls.wrPerTurnAround::36-37             4      0.01%     99.82% # Writes before turning the bus around for reads
system.mem_ctrls.wrPerTurnAround::38-39            10      0.03%     99.85% # Writes before turning the bus around for reads
system.mem_ctrls.wrPerTurnAround::40-41            10      0.03%     99.88% # Writes before turning the bus around for reads
system.mem_ctrls.wrPerTurnAround::42-43             4      0.01%     99.90% # Writes before turning the bus around for reads
system.mem_ctrls.wrPerTurnAround::44-45             8      0.03%     99.92% # Writes before turning the bus around for reads
system.mem_ctrls.wrPerTurnAround::46-47             4      0.01%     99.94% # Writes before turning the bus around for reads
system.mem_ctrls.wrPerTurnAround::48-49             7      0.02%     99.96% # Writes before turning the bus around for reads
system.mem_ctrls.wrPerTurnAround::50-51             9      0.03%     99.99% # Writes before turning the bus around for reads
system.mem_ctrls.wrPerTurnAround::52-53             1      0.00%     99.99% # Writes before turning the bus around for reads
system.mem_ctrls.wrPerTurnAround::56-57             2      0.01%    100.00% # Writes before turning the bus around for reads
system.mem_ctrls.wrPerTurnAround::64-65             1      0.00%    100.00% # Writes before turning the bus around for reads
system.mem_ctrls.wrPerTurnAround::total         31140                       # Writes before turning the bus around for reads
system.mem_ctrls.totQLat                   7782153750                       # Total ticks spent queuing
system.mem_ctrls.totMemAccLat             18201716250                       # Total ticks spent from burst creation until serviced by the DRAM
system.mem_ctrls.totBusLat                 2778550000                       # Total ticks spent in databus transfers
system.mem_ctrls.avgQLat                     14003.98                       # Average queueing delay per DRAM burst
system.mem_ctrls.avgBusLat                    5000.00                       # Average bus latency per DRAM burst
system.mem_ctrls.avgMemAccLat                32753.98                       # Average memory access latency per DRAM burst
system.mem_ctrls.avgRdBW                         6.67                       # Average DRAM read bandwidth in MiByte/s
system.mem_ctrls.avgWrBW                         6.17                       # Average achieved write bandwidth in MiByte/s
system.mem_ctrls.avgRdBWSys                      6.67                       # Average system read bandwidth in MiByte/s
system.mem_ctrls.avgWrBWSys                      6.17                       # Average system write bandwidth in MiByte/s
system.mem_ctrls.peakBW                      12800.00                       # Theoretical peak bandwidth in MiByte/s
system.mem_ctrls.busUtil                         0.10                       # Data bus utilization in percentage
system.mem_ctrls.busUtilRead                     0.05                       # Data bus utilization in percentage for reads
system.mem_ctrls.busUtilWrite                    0.05                       # Data bus utilization in percentage for writes
system.mem_ctrls.avgRdQLen                       1.00                       # Average read queue length when enqueuing
system.mem_ctrls.avgWrQLen                      26.49                       # Average write queue length when enqueuing
system.mem_ctrls.readRowHits                   484436                       # Number of row buffer hits during reads
system.mem_ctrls.writeRowHits                  423487                       # Number of row buffer hits during writes
system.mem_ctrls.readRowHitRate                 87.17                       # Row buffer hit rate for reads
system.mem_ctrls.writeRowHitRate                82.38                       # Row buffer hit rate for writes
system.mem_ctrls.avgGap                    4987171.47                       # Average gap between requests
system.mem_ctrls.pageHitRate                    84.87                       # Row buffer hit rate, read and write combined
system.mem_ctrls_0.actEnergy                618513840                       # Energy for activate commands per rank (pJ)
system.mem_ctrls_0.preEnergy                337482750                       # Energy for precharge commands per rank (pJ)
system.mem_ctrls_0.readEnergy              2157870000                       # Energy for read commands per rank (pJ)
system.mem_ctrls_0.writeEnergy             1663714080                       # Energy for write commands per rank (pJ)
system.mem_ctrls_0.refreshEnergy         348475991760                       # Energy for refresh commands per rank (pJ)
system.mem_ctrls_0.actBackEnergy         164313207450                       # Energy for active background per rank (pJ)
system.mem_ctrls_0.preBackEnergy         3057046962000                       # Energy for precharge background per rank (pJ)
system.mem_ctrls_0.totalEnergy           3574613741880                       # Total energy per rank (pJ)
system.mem_ctrls_0.averagePower            669.992733                       # Core power per rank (mW)
system.mem_ctrls_0.memoryStateTime::IDLE 5085144430000                       # Time in different power states
system.mem_ctrls_0.memoryStateTime::REF  178157460000                       # Time in different power states
system.mem_ctrls_0.memoryStateTime::PRE_PDN            0                       # Time in different power states
system.mem_ctrls_0.memoryStateTime::ACT   72003640000                       # Time in different power states
system.mem_ctrls_0.memoryStateTime::ACT_PDN            0                       # Time in different power states
system.mem_ctrls_1.actEnergy                604784880                       # Energy for activate commands per rank (pJ)
system.mem_ctrls_1.preEnergy                329991750                       # Energy for precharge commands per rank (pJ)
system.mem_ctrls_1.readEnergy              2176629000                       # Energy for read commands per rank (pJ)
system.mem_ctrls_1.writeEnergy             1667180880                       # Energy for write commands per rank (pJ)
system.mem_ctrls_1.refreshEnergy         348475991760                       # Energy for refresh commands per rank (pJ)
system.mem_ctrls_1.actBackEnergy         163667354985                       # Energy for active background per rank (pJ)
system.mem_ctrls_1.preBackEnergy         3057613499250                       # Energy for precharge background per rank (pJ)
system.mem_ctrls_1.totalEnergy           3574535432505                       # Total energy per rank (pJ)
system.mem_ctrls_1.averagePower            669.978056                       # Core power per rank (mW)
system.mem_ctrls_1.memoryStateTime::IDLE 5086084446500                       # Time in different power states
system.mem_ctrls_1.memoryStateTime::REF  178157460000                       # Time in different power states
system.mem_ctrls_1.memoryStateTime::PRE_PDN            0                       # Time in different power states
system.mem_ctrls_1.memoryStateTime::ACT   71063871000                       # Time in different power states
system.mem_ctrls_1.memoryStateTime::ACT_PDN            0                       # Time in different power states
system.cpu_voltage_domain.voltage                   1                       # Voltage in Volts
system.cpu_clk_domain.clock                       500                       # Clock period in ticks
system.cpu.apic_clk_domain.clock                 8000                       # Clock period in ticks
system.cpu.numCycles                      10670612232                       # number of cpu cycles simulated
system.cpu.numWorkItemsStarted                      0                       # number of work items this cpu started
system.cpu.numWorkItemsCompleted                    0                       # number of work items this cpu completed
system.cpu.committedInsts                    94397074                       # Number of instructions committed
system.cpu.committedOps                     184572816                       # Number of ops (including micro ops) committed
system.cpu.num_int_alu_accesses             175650597                       # Number of integer alu accesses
system.cpu.num_fp_alu_accesses                  41144                       # Number of float alu accesses
system.cpu.num_func_calls                     2321714                       # number of times a function call or return occured
system.cpu.num_conditional_control_insts     16774034                       # number of instructions that are conditional controls
system.cpu.num_int_insts                    175650597                       # number of integer instructions
system.cpu.num_fp_insts                         41144                       # number of float instructions
system.cpu.num_int_register_reads           332765055                       # number of times the integer registers were read
system.cpu.num_int_register_writes          146160798                       # number of times the integer registers were written
system.cpu.num_fp_register_reads                67816                       # number of times the floating registers were read
system.cpu.num_fp_register_writes               32733                       # number of times the floating registers were written
system.cpu.num_cc_register_reads             96885455                       # number of times the CC registers were read
system.cpu.num_cc_register_writes            67240647                       # number of times the CC registers were written
system.cpu.num_mem_refs                      25578323                       # number of memory refs
system.cpu.num_load_insts                    15158847                       # Number of load instructions
system.cpu.num_store_insts                   10419476                       # Number of store instructions
system.cpu.num_idle_cycles               9810837694.694160                       # Number of idle cycles
system.cpu.num_busy_cycles               859774537.305839                       # Number of busy cycles
system.cpu.not_idle_fraction                 0.080574                       # Percentage of non-idle cycles
system.cpu.idle_fraction                     0.919426                       # Percentage of idle cycles
system.cpu.Branches                          20013127                       # Number of branches fetched
system.cpu.op_class::No_OpClass               1142234      0.62%      0.62% # Class of executed instruction
system.cpu.op_class::IntAlu                 157596952     85.38%     86.00% # Class of executed instruction
system.cpu.op_class::IntMult                   123938      0.07%     86.07% # Class of executed instruction
system.cpu.op_class::IntDiv                    109090      0.06%     86.13% # Class of executed instruction
system.cpu.op_class::FloatAdd                   29248      0.02%     86.14% # Class of executed instruction
system.cpu.op_class::FloatCmp                       0      0.00%     86.14% # Class of executed instruction
system.cpu.op_class::FloatCvt                      16      0.00%     86.14% # Class of executed instruction
system.cpu.op_class::FloatMult                      0      0.00%     86.14% # Class of executed instruction
system.cpu.op_class::FloatDiv                       0      0.00%     86.14% # Class of executed instruction
system.cpu.op_class::FloatSqrt                      0      0.00%     86.14% # Class of executed instruction
system.cpu.op_class::SimdAdd                        0      0.00%     86.14% # Class of executed instruction
system.cpu.op_class::SimdAddAcc                     0      0.00%     86.14% # Class of executed instruction
system.cpu.op_class::SimdAlu                        0      0.00%     86.14% # Class of executed instruction
system.cpu.op_class::SimdCmp                        0      0.00%     86.14% # Class of executed instruction
system.cpu.op_class::SimdCvt                        0      0.00%     86.14% # Class of executed instruction
system.cpu.op_class::SimdMisc                       0      0.00%     86.14% # Class of executed instruction
system.cpu.op_class::SimdMult                       0      0.00%     86.14% # Class of executed instruction
system.cpu.op_class::SimdMultAcc                    0      0.00%     86.14% # Class of executed instruction
system.cpu.op_class::SimdShift                      0      0.00%     86.14% # Class of executed instruction
system.cpu.op_class::SimdShiftAcc                   0      0.00%     86.14% # Class of executed instruction
system.cpu.op_class::SimdSqrt                       0      0.00%     86.14% # Class of executed instruction
system.cpu.op_class::SimdFloatAdd                   0      0.00%     86.14% # Class of executed instruction
system.cpu.op_class::SimdFloatAlu                   0      0.00%     86.14% # Class of executed instruction
system.cpu.op_class::SimdFloatCmp                   0      0.00%     86.14% # Class of executed instruction
system.cpu.op_class::SimdFloatCvt                   0      0.00%     86.14% # Class of executed instruction
system.cpu.op_class::SimdFloatDiv                   0      0.00%     86.14% # Class of executed instruction
system.cpu.op_class::SimdFloatMisc                  0      0.00%     86.14% # Class of executed instruction
system.cpu.op_class::SimdFloatMult                  0      0.00%     86.14% # Class of executed instruction
system.cpu.op_class::SimdFloatMultAcc               0      0.00%     86.14% # Class of executed instruction
system.cpu.op_class::SimdFloatSqrt                  0      0.00%     86.14% # Class of executed instruction
system.cpu.op_class::MemRead                 15153875      8.21%     94.35% # Class of executed instruction
system.cpu.op_class::MemWrite                10419476      5.65%    100.00% # Class of executed instruction
system.cpu.op_class::IprAccess                      0      0.00%    100.00% # Class of executed instruction
system.cpu.op_class::InstPrefetch                   0      0.00%    100.00% # Class of executed instruction
system.cpu.op_class::total                  184574829                       # Class of executed instruction
system.cpu.kern.inst.arm                            0                       # number of arm instructions executed
system.cpu.kern.inst.quiesce                        0                       # number of quiesce instructions executed
system.iobus.trans_dist::ReadReq               842194                       # Transaction distribution
system.iobus.trans_dist::ReadResp              842194                       # Transaction distribution
system.iobus.trans_dist::WriteReq               12549                       # Transaction distribution
system.iobus.trans_dist::WriteResp              12549                       # Transaction distribution
system.iobus.trans_dist::MessageReq              1615                       # Transaction distribution
system.iobus.trans_dist::MessageResp             1615                       # Transaction distribution
system.iobus.pkt_count_system.pc.south_bridge.io_apic.int_master::system.ruby.l1_cntrl0.sequencer.pio-slave-port         3230                       # Packet count per connected master and slave (bytes)
system.iobus.pkt_count_system.pc.south_bridge.io_apic.int_master::total         3230                       # Packet count per connected master and slave (bytes)
system.iobus.pkt_count_system.ruby.l1_cntrl0.sequencer.mem-master-port::system.pc.south_bridge.cmos.pio           48                       # Packet count per connected master and slave (bytes)
system.iobus.pkt_count_system.ruby.l1_cntrl0.sequencer.mem-master-port::system.pc.south_bridge.dma1.pio            6                       # Packet count per connected master and slave (bytes)
system.iobus.pkt_count_system.ruby.l1_cntrl0.sequencer.mem-master-port::system.pc.south_bridge.ide.pio         6764                       # Packet count per connected master and slave (bytes)
system.iobus.pkt_count_system.ruby.l1_cntrl0.sequencer.mem-master-port::system.pc.south_bridge.ide-pciconf          180                       # Packet count per connected master and slave (bytes)
system.iobus.pkt_count_system.ruby.l1_cntrl0.sequencer.mem-master-port::system.pc.south_bridge.keyboard.pio         1364                       # Packet count per connected master and slave (bytes)
system.iobus.pkt_count_system.ruby.l1_cntrl0.sequencer.mem-master-port::system.pc.south_bridge.pic1.pio          130                       # Packet count per connected master and slave (bytes)
system.iobus.pkt_count_system.ruby.l1_cntrl0.sequencer.mem-master-port::system.pc.south_bridge.pic2.pio           54                       # Packet count per connected master and slave (bytes)
system.iobus.pkt_count_system.ruby.l1_cntrl0.sequencer.mem-master-port::system.pc.south_bridge.pit.pio           30                       # Packet count per connected master and slave (bytes)
system.iobus.pkt_count_system.ruby.l1_cntrl0.sequencer.mem-master-port::system.pc.south_bridge.speaker.pio       934582                       # Packet count per connected master and slave (bytes)
system.iobus.pkt_count_system.ruby.l1_cntrl0.sequencer.mem-master-port::system.pc.south_bridge.io_apic.pio         1554                       # Packet count per connected master and slave (bytes)
system.iobus.pkt_count_system.ruby.l1_cntrl0.sequencer.mem-master-port::system.pc.i_dont_exist1.pio          174                       # Packet count per connected master and slave (bytes)
system.iobus.pkt_count_system.ruby.l1_cntrl0.sequencer.mem-master-port::system.pc.behind_pci.pio            2                       # Packet count per connected master and slave (bytes)
system.iobus.pkt_count_system.ruby.l1_cntrl0.sequencer.mem-master-port::system.pc.com_1.pio        29328                       # Packet count per connected master and slave (bytes)
system.iobus.pkt_count_system.ruby.l1_cntrl0.sequencer.mem-master-port::system.pc.fake_com_2.pio           12                       # Packet count per connected master and slave (bytes)
system.iobus.pkt_count_system.ruby.l1_cntrl0.sequencer.mem-master-port::system.pc.fake_com_3.pio           12                       # Packet count per connected master and slave (bytes)
system.iobus.pkt_count_system.ruby.l1_cntrl0.sequencer.mem-master-port::system.pc.fake_com_4.pio           12                       # Packet count per connected master and slave (bytes)
system.iobus.pkt_count_system.ruby.l1_cntrl0.sequencer.mem-master-port::system.pc.fake_floppy.pio           10                       # Packet count per connected master and slave (bytes)
system.iobus.pkt_count_system.ruby.l1_cntrl0.sequencer.mem-master-port::system.ruby.l1_cntrl0.sequencer.pio-slave-port       733098                       # Packet count per connected master and slave (bytes)
system.iobus.pkt_count_system.ruby.l1_cntrl0.sequencer.mem-master-port::system.pc.pciconfig.pio         2126                       # Packet count per connected master and slave (bytes)
system.iobus.pkt_count_system.ruby.l1_cntrl0.sequencer.mem-master-port::total      1709486                       # Packet count per connected master and slave (bytes)
system.iobus.pkt_count::total                 1712716                       # Packet count per connected master and slave (bytes)
system.iobus.pkt_size_system.pc.south_bridge.io_apic.int_master::system.ruby.l1_cntrl0.sequencer.pio-slave-port         6460                       # Cumulative packet size per connected master and slave (bytes)
system.iobus.pkt_size_system.pc.south_bridge.io_apic.int_master::total         6460                       # Cumulative packet size per connected master and slave (bytes)
system.iobus.pkt_size_system.ruby.l1_cntrl0.sequencer.mem-master-port::system.pc.south_bridge.cmos.pio           24                       # Cumulative packet size per connected master and slave (bytes)
system.iobus.pkt_size_system.ruby.l1_cntrl0.sequencer.mem-master-port::system.pc.south_bridge.dma1.pio            3                       # Cumulative packet size per connected master and slave (bytes)
system.iobus.pkt_size_system.ruby.l1_cntrl0.sequencer.mem-master-port::system.pc.south_bridge.ide.pio         4242                       # Cumulative packet size per connected master and slave (bytes)
system.iobus.pkt_size_system.ruby.l1_cntrl0.sequencer.mem-master-port::system.pc.south_bridge.ide-pciconf          221                       # Cumulative packet size per connected master and slave (bytes)
system.iobus.pkt_size_system.ruby.l1_cntrl0.sequencer.mem-master-port::system.pc.south_bridge.keyboard.pio          682                       # Cumulative packet size per connected master and slave (bytes)
system.iobus.pkt_size_system.ruby.l1_cntrl0.sequencer.mem-master-port::system.pc.south_bridge.pic1.pio           65                       # Cumulative packet size per connected master and slave (bytes)
system.iobus.pkt_size_system.ruby.l1_cntrl0.sequencer.mem-master-port::system.pc.south_bridge.pic2.pio           27                       # Cumulative packet size per connected master and slave (bytes)
system.iobus.pkt_size_system.ruby.l1_cntrl0.sequencer.mem-master-port::system.pc.south_bridge.pit.pio           15                       # Cumulative packet size per connected master and slave (bytes)
system.iobus.pkt_size_system.ruby.l1_cntrl0.sequencer.mem-master-port::system.pc.south_bridge.speaker.pio       467291                       # Cumulative packet size per connected master and slave (bytes)
system.iobus.pkt_size_system.ruby.l1_cntrl0.sequencer.mem-master-port::system.pc.south_bridge.io_apic.pio         3108                       # Cumulative packet size per connected master and slave (bytes)
system.iobus.pkt_size_system.ruby.l1_cntrl0.sequencer.mem-master-port::system.pc.i_dont_exist1.pio           87                       # Cumulative packet size per connected master and slave (bytes)
system.iobus.pkt_size_system.ruby.l1_cntrl0.sequencer.mem-master-port::system.pc.behind_pci.pio            1                       # Cumulative packet size per connected master and slave (bytes)
system.iobus.pkt_size_system.ruby.l1_cntrl0.sequencer.mem-master-port::system.pc.com_1.pio        14664                       # Cumulative packet size per connected master and slave (bytes)
system.iobus.pkt_size_system.ruby.l1_cntrl0.sequencer.mem-master-port::system.pc.fake_com_2.pio            6                       # Cumulative packet size per connected master and slave (bytes)
system.iobus.pkt_size_system.ruby.l1_cntrl0.sequencer.mem-master-port::system.pc.fake_com_3.pio            6                       # Cumulative packet size per connected master and slave (bytes)
system.iobus.pkt_size_system.ruby.l1_cntrl0.sequencer.mem-master-port::system.pc.fake_com_4.pio            6                       # Cumulative packet size per connected master and slave (bytes)
system.iobus.pkt_size_system.ruby.l1_cntrl0.sequencer.mem-master-port::system.pc.fake_floppy.pio            5                       # Cumulative packet size per connected master and slave (bytes)
system.iobus.pkt_size_system.ruby.l1_cntrl0.sequencer.mem-master-port::system.ruby.l1_cntrl0.sequencer.pio-slave-port      1466190                       # Cumulative packet size per connected master and slave (bytes)
system.iobus.pkt_size_system.ruby.l1_cntrl0.sequencer.mem-master-port::system.pc.pciconfig.pio         4252                       # Cumulative packet size per connected master and slave (bytes)
system.iobus.pkt_size_system.ruby.l1_cntrl0.sequencer.mem-master-port::total      1960895                       # Cumulative packet size per connected master and slave (bytes)
system.iobus.pkt_size::total                  1967355                       # Cumulative packet size per connected master and slave (bytes)
system.iobus.reqLayer0.occupancy                47000                       # Layer occupancy (ticks)
system.iobus.reqLayer0.utilization                0.0                       # Layer utilization (%)
system.iobus.reqLayer1.occupancy                 6500                       # Layer occupancy (ticks)
system.iobus.reqLayer1.utilization                0.0                       # Layer utilization (%)
system.iobus.reqLayer2.occupancy              6033000                       # Layer occupancy (ticks)
system.iobus.reqLayer2.utilization                0.0                       # Layer utilization (%)
system.iobus.reqLayer3.occupancy               145500                       # Layer occupancy (ticks)
system.iobus.reqLayer3.utilization                0.0                       # Layer utilization (%)
system.iobus.reqLayer4.occupancy              1070000                       # Layer occupancy (ticks)
system.iobus.reqLayer4.utilization                0.0                       # Layer utilization (%)
system.iobus.reqLayer5.occupancy               136000                       # Layer occupancy (ticks)
system.iobus.reqLayer5.utilization                0.0                       # Layer utilization (%)
system.iobus.reqLayer6.occupancy                58500                       # Layer occupancy (ticks)
system.iobus.reqLayer6.utilization                0.0                       # Layer utilization (%)
system.iobus.reqLayer7.occupancy                27500                       # Layer occupancy (ticks)
system.iobus.reqLayer7.utilization                0.0                       # Layer utilization (%)
system.iobus.reqLayer8.occupancy            467292000                       # Layer occupancy (ticks)
system.iobus.reqLayer8.utilization                0.0                       # Layer utilization (%)
system.iobus.reqLayer9.occupancy              1558000                       # Layer occupancy (ticks)
system.iobus.reqLayer9.utilization                0.0                       # Layer utilization (%)
system.iobus.reqLayer10.occupancy              204000                       # Layer occupancy (ticks)
system.iobus.reqLayer10.utilization               0.0                       # Layer utilization (%)
system.iobus.reqLayer12.occupancy                2500                       # Layer occupancy (ticks)
system.iobus.reqLayer12.utilization               0.0                       # Layer utilization (%)
system.iobus.reqLayer13.occupancy            25163500                       # Layer occupancy (ticks)
system.iobus.reqLayer13.utilization               0.0                       # Layer utilization (%)
system.iobus.reqLayer14.occupancy                9000                       # Layer occupancy (ticks)
system.iobus.reqLayer14.utilization               0.0                       # Layer utilization (%)
system.iobus.reqLayer15.occupancy                9000                       # Layer occupancy (ticks)
system.iobus.reqLayer15.utilization               0.0                       # Layer utilization (%)
system.iobus.reqLayer16.occupancy                9000                       # Layer occupancy (ticks)
system.iobus.reqLayer16.utilization               0.0                       # Layer utilization (%)
system.iobus.reqLayer17.occupancy               12000                       # Layer occupancy (ticks)
system.iobus.reqLayer17.utilization               0.0                       # Layer utilization (%)
system.iobus.reqLayer18.occupancy           465342724                       # Layer occupancy (ticks)
system.iobus.reqLayer18.utilization               0.0                       # Layer utilization (%)
system.iobus.reqLayer20.occupancy             1329000                       # Layer occupancy (ticks)
system.iobus.reqLayer20.utilization               0.0                       # Layer utilization (%)
system.iobus.respLayer0.occupancy             2346724                       # Layer occupancy (ticks)
system.iobus.respLayer0.utilization               0.0                       # Layer utilization (%)
system.iobus.respLayer2.occupancy          1793519000                       # Layer occupancy (ticks)
system.iobus.respLayer2.utilization               0.0                       # Layer utilization (%)
system.pc.south_bridge.ide.disks0.dma_read_full_pages            9                       # Number of full page size DMA reads (not PRD).
system.pc.south_bridge.ide.disks0.dma_read_bytes        36864                       # Number of bytes transfered via DMA reads (not PRD).
system.pc.south_bridge.ide.disks0.dma_read_txs            9                       # Number of DMA read transactions (not PRD).
system.pc.south_bridge.ide.disks0.dma_write_full_pages          672                       # Number of full page size DMA writes.
system.pc.south_bridge.ide.disks0.dma_write_bytes      2755584                       # Number of bytes transfered via DMA writes.
system.pc.south_bridge.ide.disks0.dma_write_txs          676                       # Number of DMA write transactions.
system.pc.south_bridge.ide.disks1.dma_read_full_pages            0                       # Number of full page size DMA reads (not PRD).
system.pc.south_bridge.ide.disks1.dma_read_bytes            0                       # Number of bytes transfered via DMA reads (not PRD).
system.pc.south_bridge.ide.disks1.dma_read_txs            0                       # Number of DMA read transactions (not PRD).
system.pc.south_bridge.ide.disks1.dma_write_full_pages            1                       # Number of full page size DMA writes.
system.pc.south_bridge.ide.disks1.dma_write_bytes         4096                       # Number of bytes transfered via DMA writes.
system.pc.south_bridge.ide.disks1.dma_write_txs            1                       # Number of DMA write transactions.
system.ruby.clk_domain.clock                      500                       # Clock period in ticks
system.ruby.delayHist::bucket_size                  2                       # delay histogram for all message
system.ruby.delayHist::max_bucket                  19                       # delay histogram for all message
system.ruby.delayHist::samples               10836803                       # delay histogram for all message
system.ruby.delayHist::mean                  0.557198                       # delay histogram for all message
system.ruby.delayHist::stdev                 2.036494                       # delay histogram for all message
system.ruby.delayHist                    |    10082002     93.03%     93.03% |          36      0.00%     93.04% |          28      0.00%     93.04% |          27      0.00%     93.04% |      754653      6.96%    100.00% |          43      0.00%    100.00% |           0      0.00%    100.00% |           0      0.00%    100.00% |           2      0.00%    100.00% |          12      0.00%    100.00% # delay histogram for all message
system.ruby.delayHist::total                 10836803                       # delay histogram for all message
system.ruby.outstanding_req_hist::bucket_size            1                      
system.ruby.outstanding_req_hist::max_bucket            9                      
system.ruby.outstanding_req_hist::samples    144098499                      
system.ruby.outstanding_req_hist::mean       1.000109                      
system.ruby.outstanding_req_hist::gmean      1.000076                      
system.ruby.outstanding_req_hist::stdev      0.010455                      
system.ruby.outstanding_req_hist         |           0      0.00%      0.00% |   144082745     99.99%     99.99% |       15754      0.01%    100.00% |           0      0.00%    100.00% |           0      0.00%    100.00% |           0      0.00%    100.00% |           0      0.00%    100.00% |           0      0.00%    100.00% |           0      0.00%    100.00% |           0      0.00%    100.00%
system.ruby.outstanding_req_hist::total     144098499                      
system.ruby.latency_hist::bucket_size             256                      
system.ruby.latency_hist::max_bucket             2559                      
system.ruby.latency_hist::samples           144098498                      
system.ruby.latency_hist::mean               3.770574                      
system.ruby.latency_hist::gmean              3.118163                      
system.ruby.latency_hist::stdev             11.127285                      
system.ruby.latency_hist                 |   144060277     99.97%     99.97% |       23904      0.02%     99.99% |       12912      0.01%    100.00% |         954      0.00%    100.00% |         366      0.00%    100.00% |          78      0.00%    100.00% |           7      0.00%    100.00% |           0      0.00%    100.00% |           0      0.00%    100.00% |           0      0.00%    100.00%
system.ruby.latency_hist::total             144098498                      
system.ruby.hit_latency_hist::bucket_size            1                      
system.ruby.hit_latency_hist::max_bucket            9                      
system.ruby.hit_latency_hist::samples       141696857                      
system.ruby.hit_latency_hist::mean                  3                      
system.ruby.hit_latency_hist::gmean          3.000000                      
system.ruby.hit_latency_hist             |           0      0.00%      0.00% |           0      0.00%      0.00% |           0      0.00%      0.00% |   141696857    100.00%    100.00% |           0      0.00%    100.00% |           0      0.00%    100.00% |           0      0.00%    100.00% |           0      0.00%    100.00% |           0      0.00%    100.00% |           0      0.00%    100.00%
system.ruby.hit_latency_hist::total         141696857                      
system.ruby.miss_latency_hist::bucket_size          256                      
system.ruby.miss_latency_hist::max_bucket         2559                      
system.ruby.miss_latency_hist::samples        2401641                      
system.ruby.miss_latency_hist::mean         49.234430                      
system.ruby.miss_latency_hist::gmean        30.463247                      
system.ruby.miss_latency_hist::stdev        72.986283                      
system.ruby.miss_latency_hist            |     2363420     98.41%     98.41% |       23904      1.00%     99.40% |       12912      0.54%     99.94% |         954      0.04%     99.98% |         366      0.02%    100.00% |          78      0.00%    100.00% |           7      0.00%    100.00% |           0      0.00%    100.00% |           0      0.00%    100.00% |           0      0.00%    100.00%
system.ruby.miss_latency_hist::total          2401641                      
system.ruby.l1_cntrl0.L1Dcache.demand_hits     23090332                       # Number of cache demand hits
system.ruby.l1_cntrl0.L1Dcache.demand_misses      1660179                       # Number of cache demand misses
system.ruby.l1_cntrl0.L1Dcache.demand_accesses     24750511                       # Number of cache demand accesses
system.ruby.l1_cntrl0.L1Icache.demand_hits    118606525                       # Number of cache demand hits
system.ruby.l1_cntrl0.L1Icache.demand_misses       741462                       # Number of cache demand misses
system.ruby.l1_cntrl0.L1Icache.demand_accesses    119347987                       # Number of cache demand accesses
system.ruby.l1_cntrl0.prefetcher.miss_observed            0                       # number of misses observed
system.ruby.l1_cntrl0.prefetcher.allocated_streams            0                       # number of streams allocated for prefetching
system.ruby.l1_cntrl0.prefetcher.prefetches_requested            0                       # number of prefetch requests made
system.ruby.l1_cntrl0.prefetcher.prefetches_accepted            0                       # number of prefetch requests accepted
system.ruby.l1_cntrl0.prefetcher.dropped_prefetches            0                       # number of prefetch requests dropped
system.ruby.l1_cntrl0.prefetcher.hits               0                       # number of prefetched blocks accessed
system.ruby.l1_cntrl0.prefetcher.partial_hits            0                       # number of misses observed for a block being prefetched
system.ruby.l1_cntrl0.prefetcher.pages_crossed            0                       # number of prefetches across pages
system.ruby.l1_cntrl0.prefetcher.misses_on_prefetched_blocks            0                       # number of misses for blocks that were prefetched, yet missed
system.ruby.l1_cntrl0.fully_busy_cycles             9                       # cycles for which number of transistions == max transitions
system.ruby.l2_cntrl0.L2cache.demand_hits      1846500                       # Number of cache demand hits
system.ruby.l2_cntrl0.L2cache.demand_misses       555141                       # Number of cache demand misses
system.ruby.l2_cntrl0.L2cache.demand_accesses      2401641                       # Number of cache demand accesses
system.ruby.memctrl_clk_domain.clock             1500                       # Clock period in ticks
system.ruby.network.routers0.percent_links_utilized     0.082103                      
system.ruby.network.routers0.msg_count.Control::0      2401641                      
system.ruby.network.routers0.msg_count.Request_Control::2         4318                      
system.ruby.network.routers0.msg_count.Response_Data::1      2401641                      
system.ruby.network.routers0.msg_count.Response_Control::1      1662543                      
system.ruby.network.routers0.msg_count.Response_Control::2      1660174                      
system.ruby.network.routers0.msg_count.Writeback_Data::0       754675                      
system.ruby.network.routers0.msg_count.Writeback_Data::1          454                      
system.ruby.network.routers0.msg_count.Writeback_Control::0       904004                      
system.ruby.network.routers0.msg_bytes.Control::0     19213128                      
system.ruby.network.routers0.msg_bytes.Request_Control::2        34544                      
system.ruby.network.routers0.msg_bytes.Response_Data::1    172918152                      
system.ruby.network.routers0.msg_bytes.Response_Control::1     13300344                      
system.ruby.network.routers0.msg_bytes.Response_Control::2     13281392                      
system.ruby.network.routers0.msg_bytes.Writeback_Data::0     54336600                      
system.ruby.network.routers0.msg_bytes.Writeback_Data::1        32688                      
system.ruby.network.routers0.msg_bytes.Writeback_Control::0      7232032                      
system.ruby.network.routers1.percent_links_utilized     0.106272                      
system.ruby.network.routers1.msg_count.Control::0      2956782                      
system.ruby.network.routers1.msg_count.Request_Control::2         4318                      
system.ruby.network.routers1.msg_count.Response_Data::1      3429551                      
system.ruby.network.routers1.msg_count.Response_Control::1      2172220                      
system.ruby.network.routers1.msg_count.Response_Control::2      1660174                      
system.ruby.network.routers1.msg_count.Writeback_Data::0       754675                      
system.ruby.network.routers1.msg_count.Writeback_Data::1          454                      
system.ruby.network.routers1.msg_count.Writeback_Control::0       904004                      
system.ruby.network.routers1.msg_bytes.Control::0     23654256                      
system.ruby.network.routers1.msg_bytes.Request_Control::2        34544                      
system.ruby.network.routers1.msg_bytes.Response_Data::1    246927672                      
system.ruby.network.routers1.msg_bytes.Response_Control::1     17377760                      
system.ruby.network.routers1.msg_bytes.Response_Control::2     13281392                      
system.ruby.network.routers1.msg_bytes.Writeback_Data::0     54336600                      
system.ruby.network.routers1.msg_bytes.Writeback_Data::1        32688                      
system.ruby.network.routers1.msg_bytes.Writeback_Control::0      7232032                      
system.ruby.network.routers2.percent_links_utilized     0.024389                      
system.ruby.network.routers2.msg_count.Control::0       555141                      
system.ruby.network.routers2.msg_count.Response_Data::1      1028664                      
system.ruby.network.routers2.msg_count.Response_Control::1       509677                      
system.ruby.network.routers2.msg_count.Writeback_Control::0        43874                      
system.ruby.network.routers2.msg_count.Writeback_Control::1        43120                      
system.ruby.network.routers2.msg_bytes.Control::0      4441128                      
system.ruby.network.routers2.msg_bytes.Response_Data::1     74063808                      
system.ruby.network.routers2.msg_bytes.Response_Control::1      4077416                      
system.ruby.network.routers2.msg_bytes.Writeback_Control::0       350992                      
system.ruby.network.routers2.msg_bytes.Writeback_Control::1       344960                      
system.ruby.network.routers3.percent_links_utilized     0.000220                      
system.ruby.network.routers3.msg_count.Response_Data::1          754                      
system.ruby.network.routers3.msg_count.Writeback_Control::0        43874                      
system.ruby.network.routers3.msg_count.Writeback_Control::1        43120                      
system.ruby.network.routers3.msg_bytes.Response_Data::1        54288                      
system.ruby.network.routers3.msg_bytes.Writeback_Control::0       350992                      
system.ruby.network.routers3.msg_bytes.Writeback_Control::1       344960                      
system.ruby.network.routers4.percent_links_utilized            0                      
system.ruby.network.routers5.percent_links_utilized     0.042597                      
system.ruby.network.routers5.msg_count.Control::0      2956782                      
system.ruby.network.routers5.msg_count.Request_Control::2         4318                      
system.ruby.network.routers5.msg_count.Response_Data::1      3430305                      
system.ruby.network.routers5.msg_count.Response_Control::1      2172220                      
system.ruby.network.routers5.msg_count.Response_Control::2      1660174                      
system.ruby.network.routers5.msg_count.Writeback_Data::0       754675                      
system.ruby.network.routers5.msg_count.Writeback_Data::1          454                      
system.ruby.network.routers5.msg_count.Writeback_Control::0       947878                      
system.ruby.network.routers5.msg_count.Writeback_Control::1        43120                      
system.ruby.network.routers5.msg_bytes.Control::0     23654256                      
system.ruby.network.routers5.msg_bytes.Request_Control::2        34544                      
system.ruby.network.routers5.msg_bytes.Response_Data::1    246981960                      
system.ruby.network.routers5.msg_bytes.Response_Control::1     17377760                      
system.ruby.network.routers5.msg_bytes.Response_Control::2     13281392                      
system.ruby.network.routers5.msg_bytes.Writeback_Data::0     54336600                      
system.ruby.network.routers5.msg_bytes.Writeback_Data::1        32688                      
system.ruby.network.routers5.msg_bytes.Writeback_Control::0      7583024                      
system.ruby.network.routers5.msg_bytes.Writeback_Control::1       344960                      
system.ruby.network.msg_count.Control         8870346                      
system.ruby.network.msg_count.Request_Control        12954                      
system.ruby.network.msg_count.Response_Data     10290915                      
system.ruby.network.msg_count.Response_Control     11497182                      
system.ruby.network.msg_count.Writeback_Data      2265387                      
system.ruby.network.msg_count.Writeback_Control      2972994                      
system.ruby.network.msg_byte.Control         70962768                      
system.ruby.network.msg_byte.Request_Control       103632                      
system.ruby.network.msg_byte.Response_Data    740945880                      
system.ruby.network.msg_byte.Response_Control     91977456                      
system.ruby.network.msg_byte.Writeback_Data    163107864                      
system.ruby.network.msg_byte.Writeback_Control     23783952                      
system.ruby.network.routers0.throttle0.link_utilization     0.109074                      
system.ruby.network.routers0.throttle0.msg_count.Request_Control::2         4318                      
system.ruby.network.routers0.throttle0.msg_count.Response_Data::1      2401641                      
system.ruby.network.routers0.throttle0.msg_count.Response_Control::1      1658679                      
system.ruby.network.routers0.throttle0.msg_bytes.Request_Control::2        34544                      
system.ruby.network.routers0.throttle0.msg_bytes.Response_Data::1    172918152                      
system.ruby.network.routers0.throttle0.msg_bytes.Response_Control::1     13269432                      
system.ruby.network.routers0.throttle1.link_utilization     0.055132                      
system.ruby.network.routers0.throttle1.msg_count.Control::0      2401641                      
system.ruby.network.routers0.throttle1.msg_count.Response_Control::1         3864                      
system.ruby.network.routers0.throttle1.msg_count.Response_Control::2      1660174                      
system.ruby.network.routers0.throttle1.msg_count.Writeback_Data::0       754675                      
system.ruby.network.routers0.throttle1.msg_count.Writeback_Data::1          454                      
system.ruby.network.routers0.throttle1.msg_count.Writeback_Control::0       904004                      
system.ruby.network.routers0.throttle1.msg_bytes.Control::0     19213128                      
system.ruby.network.routers0.throttle1.msg_bytes.Response_Control::1        30912                      
system.ruby.network.routers0.throttle1.msg_bytes.Response_Control::2     13281392                      
system.ruby.network.routers0.throttle1.msg_bytes.Writeback_Data::0     54336600                      
system.ruby.network.routers0.throttle1.msg_bytes.Writeback_Data::1        32688                      
system.ruby.network.routers0.throttle1.msg_bytes.Writeback_Control::0      7232032                      
system.ruby.network.routers1.throttle0.link_utilization     0.080850                      
system.ruby.network.routers1.throttle0.msg_count.Control::0      2401641                      
system.ruby.network.routers1.throttle0.msg_count.Response_Data::1       555141                      
system.ruby.network.routers1.throttle0.msg_count.Response_Control::1       496076                      
system.ruby.network.routers1.throttle0.msg_count.Response_Control::2      1660174                      
system.ruby.network.routers1.throttle0.msg_count.Writeback_Data::0       754675                      
system.ruby.network.routers1.throttle0.msg_count.Writeback_Data::1          454                      
system.ruby.network.routers1.throttle0.msg_count.Writeback_Control::0       904004                      
system.ruby.network.routers1.throttle0.msg_bytes.Control::0     19213128                      
system.ruby.network.routers1.throttle0.msg_bytes.Response_Data::1     39970152                      
system.ruby.network.routers1.throttle0.msg_bytes.Response_Control::1      3968608                      
system.ruby.network.routers1.throttle0.msg_bytes.Response_Control::2     13281392                      
system.ruby.network.routers1.throttle0.msg_bytes.Writeback_Data::0     54336600                      
system.ruby.network.routers1.throttle0.msg_bytes.Writeback_Data::1        32688                      
system.ruby.network.routers1.throttle0.msg_bytes.Writeback_Control::0      7232032                      
system.ruby.network.routers1.throttle1.link_utilization     0.131695                      
system.ruby.network.routers1.throttle1.msg_count.Control::0       555141                      
system.ruby.network.routers1.throttle1.msg_count.Request_Control::2         4318                      
system.ruby.network.routers1.throttle1.msg_count.Response_Data::1      2874410                      
system.ruby.network.routers1.throttle1.msg_count.Response_Control::1      1676144                      
system.ruby.network.routers1.throttle1.msg_bytes.Control::0      4441128                      
system.ruby.network.routers1.throttle1.msg_bytes.Request_Control::2        34544                      
system.ruby.network.routers1.throttle1.msg_bytes.Response_Data::1    206957520                      
system.ruby.network.routers1.throttle1.msg_bytes.Response_Control::1     13409152                      
system.ruby.network.routers2.throttle0.link_utilization     0.022826                      
system.ruby.network.routers2.throttle0.msg_count.Control::0       555141                      
system.ruby.network.routers2.throttle0.msg_count.Response_Data::1       472769                      
system.ruby.network.routers2.throttle0.msg_count.Response_Control::1        17465                      
system.ruby.network.routers2.throttle0.msg_count.Writeback_Control::0        43874                      
system.ruby.network.routers2.throttle0.msg_bytes.Control::0      4441128                      
system.ruby.network.routers2.throttle0.msg_bytes.Response_Data::1     34039368                      
system.ruby.network.routers2.throttle0.msg_bytes.Response_Control::1       139720                      
system.ruby.network.routers2.throttle0.msg_bytes.Writeback_Control::0       350992                      
system.ruby.network.routers2.throttle1.link_utilization     0.025952                      
system.ruby.network.routers2.throttle1.msg_count.Response_Data::1       555895                      
system.ruby.network.routers2.throttle1.msg_count.Response_Control::1       492212                      
system.ruby.network.routers2.throttle1.msg_count.Writeback_Control::1        43120                      
system.ruby.network.routers2.throttle1.msg_bytes.Response_Data::1     40024440                      
system.ruby.network.routers2.throttle1.msg_bytes.Response_Control::1      3937696                      
system.ruby.network.routers2.throttle1.msg_bytes.Writeback_Control::1       344960                      
system.ruby.network.routers3.throttle0.link_utilization     0.000234                      
system.ruby.network.routers3.throttle0.msg_count.Response_Data::1          754                      
system.ruby.network.routers3.throttle0.msg_count.Writeback_Control::1        43120                      
system.ruby.network.routers3.throttle0.msg_bytes.Response_Data::1        54288                      
system.ruby.network.routers3.throttle0.msg_bytes.Writeback_Control::1       344960                      
system.ruby.network.routers3.throttle1.link_utilization     0.000206                      
system.ruby.network.routers3.throttle1.msg_count.Writeback_Control::0        43874                      
system.ruby.network.routers3.throttle1.msg_bytes.Writeback_Control::0       350992                      
system.ruby.network.routers4.throttle0.link_utilization            0                      
system.ruby.network.routers4.throttle1.link_utilization            0                      
system.ruby.network.routers5.throttle0.link_utilization     0.109074                      
system.ruby.network.routers5.throttle0.msg_count.Request_Control::2         4318                      
system.ruby.network.routers5.throttle0.msg_count.Response_Data::1      2401641                      
system.ruby.network.routers5.throttle0.msg_count.Response_Control::1      1658679                      
system.ruby.network.routers5.throttle0.msg_bytes.Request_Control::2        34544                      
system.ruby.network.routers5.throttle0.msg_bytes.Response_Data::1    172918152                      
system.ruby.network.routers5.throttle0.msg_bytes.Response_Control::1     13269432                      
system.ruby.network.routers5.throttle1.link_utilization     0.080850                      
system.ruby.network.routers5.throttle1.msg_count.Control::0      2401641                      
system.ruby.network.routers5.throttle1.msg_count.Response_Data::1       555141                      
system.ruby.network.routers5.throttle1.msg_count.Response_Control::1       496076                      
system.ruby.network.routers5.throttle1.msg_count.Response_Control::2      1660174                      
system.ruby.network.routers5.throttle1.msg_count.Writeback_Data::0       754675                      
system.ruby.network.routers5.throttle1.msg_count.Writeback_Data::1          454                      
system.ruby.network.routers5.throttle1.msg_count.Writeback_Control::0       904004                      
system.ruby.network.routers5.throttle1.msg_bytes.Control::0     19213128                      
system.ruby.network.routers5.throttle1.msg_bytes.Response_Data::1     39970152                      
system.ruby.network.routers5.throttle1.msg_bytes.Response_Control::1      3968608                      
system.ruby.network.routers5.throttle1.msg_bytes.Response_Control::2     13281392                      
system.ruby.network.routers5.throttle1.msg_bytes.Writeback_Data::0     54336600                      
system.ruby.network.routers5.throttle1.msg_bytes.Writeback_Data::1        32688                      
system.ruby.network.routers5.throttle1.msg_bytes.Writeback_Control::0      7232032                      
system.ruby.network.routers5.throttle2.link_utilization     0.022826                      
[...]
system.ruby.LD.miss_latency_hist::mean      82.615931                      
system.ruby.LD.miss_latency_hist::gmean     49.459480                      
system.ruby.LD.miss_latency_hist::stdev     92.747066                      
system.ruby.LD.miss_latency_hist         |     4127449     97.37%     97.37% |       74175      1.75%     99.12% |       34401      0.81%     99.93% |        1481      0.03%     99.96% |        1125      0.03%     99.99% |         264      0.01%    100.00% |         148      0.00%    100.00% |          25      0.00%    100.00% |           9      0.00%    100.00% |           1      0.00%    100.00%
system.ruby.LD.miss_latency_hist::total       4239078                      
system.ruby.ST.latency_hist::bucket_size          256                      
system.ruby.ST.latency_hist::max_bucket          2559                      
system.ruby.ST.latency_hist::samples          8751390                      
system.ruby.ST.latency_hist::mean            3.745487                      
system.ruby.ST.latency_hist::gmean           3.065598                      
system.ruby.ST.latency_hist::stdev          11.965310                      
system.ruby.ST.latency_hist              |     8749104     99.97%     99.97% |        1181      0.01%     99.99% |        1053      0.01%    100.00% |          29      0.00%    100.00% |          21      0.00%    100.00% |           2      0.00%    100.00% |           0      0.00%    100.00% |           0      0.00%    100.00% |           0      0.00%    100.00% |           0      0.00%    100.00%
system.ruby.ST.latency_hist::total            8751390                      
system.ruby.ST.hit_latency_hist::bucket_size            1                      
system.ruby.ST.hit_latency_hist::max_bucket            9                      
system.ruby.ST.hit_latency_hist::samples      8698228                      
system.ruby.ST.hit_latency_hist::mean               3                      
system.ruby.ST.hit_latency_hist::gmean       3.000000                      
system.ruby.ST.hit_latency_hist          |           0      0.00%      0.00% |           0      0.00%      0.00% |           0      0.00%      0.00% |     8698228    100.00%    100.00% |           0      0.00%    100.00% |           0      0.00%    100.00% |           0      0.00%    100.00% |           0      0.00%    100.00% |           0      0.00%    100.00% |           0      0.00%    100.00%
system.ruby.ST.hit_latency_hist::total        8698228                      
system.ruby.ST.miss_latency_hist::bucket_size          256                      
system.ruby.ST.miss_latency_hist::max_bucket         2559                      
system.ruby.ST.miss_latency_hist::samples        53162                      
system.ruby.ST.miss_latency_hist::mean     125.720120                      
system.ruby.ST.miss_latency_hist::gmean    105.566781                      
system.ruby.ST.miss_latency_hist::stdev     92.733309                      
system.ruby.ST.miss_latency_hist         |       50876     95.70%     95.70% |        1181      2.22%     97.92% |        1053      1.98%     99.90% |          29      0.05%     99.96% |          21      0.04%    100.00% |           2      0.00%    100.00% |           0      0.00%    100.00% |           0      0.00%    100.00% |           0      0.00%    100.00% |           0      0.00%    100.00%
system.ruby.ST.miss_latency_hist::total         53162                      
system.ruby.IFETCH.latency_hist::bucket_size          256                      
system.ruby.IFETCH.latency_hist::max_bucket         2559                      
system.ruby.IFETCH.latency_hist::samples    116406118                      
system.ruby.IFETCH.latency_hist::mean        3.014496                      
system.ruby.IFETCH.latency_hist::gmean       3.001275                      
system.ruby.IFETCH.latency_hist::stdev       1.654162                      
system.ruby.IFETCH.latency_hist          |   116405606    100.00%    100.00% |         326      0.00%    100.00% |         180      0.00%    100.00% |           3      0.00%    100.00% |           2      0.00%    100.00% |           1      0.00%    100.00% |           0      0.00%    100.00% |           0      0.00%    100.00% |           0      0.00%    100.00% |           0      0.00%    100.00%
system.ruby.IFETCH.latency_hist::total      116406118                      
system.ruby.IFETCH.hit_latency_hist::bucket_size            1                      
system.ruby.IFETCH.hit_latency_hist::max_bucket            9                      
system.ruby.IFETCH.hit_latency_hist::samples    116391089                      
system.ruby.IFETCH.hit_latency_hist::mean            3                      
system.ruby.IFETCH.hit_latency_hist::gmean     3.000000                      
system.ruby.IFETCH.hit_latency_hist      |           0      0.00%      0.00% |           0      0.00%      0.00% |           0      0.00%      0.00% |   116391089    100.00%    100.00% |           0      0.00%    100.00% |           0      0.00%    100.00% |           0      0.00%    100.00% |           0      0.00%    100.00% |           0      0.00%    100.00% |           0      0.00%    100.00%
system.ruby.IFETCH.hit_latency_hist::total    116391089                      
system.ruby.IFETCH.miss_latency_hist::bucket_size          256                      
system.ruby.IFETCH.miss_latency_hist::max_bucket         2559                      
system.ruby.IFETCH.miss_latency_hist::samples        15029                      
system.ruby.IFETCH.miss_latency_hist::mean   115.278329                      
system.ruby.IFETCH.miss_latency_hist::gmean    80.599924                      
system.ruby.IFETCH.miss_latency_hist::stdev    92.678049                      
system.ruby.IFETCH.miss_latency_hist     |       14517     96.59%     96.59% |         326      2.17%     98.76% |         180      1.20%     99.96% |           3      0.02%     99.98% |           2      0.01%     99.99% |           1      0.01%    100.00% |           0      0.00%    100.00% |           0      0.00%    100.00% |           0      0.00%    100.00% |           0      0.00%    100.00%
system.ruby.IFETCH.miss_latency_hist::total        15029                      
system.ruby.RMW_Read.latency_hist::bucket_size          128                      
system.ruby.RMW_Read.latency_hist::max_bucket         1279                      
system.ruby.RMW_Read.latency_hist::samples       736545                      
system.ruby.RMW_Read.latency_hist::mean      3.091916                      
system.ruby.RMW_Read.latency_hist::gmean     3.021976                      
system.ruby.RMW_Read.latency_hist::stdev     2.644765                      
system.ruby.RMW_Read.latency_hist        |      736445     99.99%     99.99% |          95      0.01%    100.00% |           1      0.00%    100.00% |           2      0.00%    100.00% |           1      0.00%    100.00% |           1      0.00%    100.00% |           0      0.00%    100.00% |           0      0.00%    100.00% |           0      0.00%    100.00% |           0      0.00%    100.00%
system.ruby.RMW_Read.latency_hist::total       736545                      
system.ruby.RMW_Read.hit_latency_hist::bucket_size            1                      
system.ruby.RMW_Read.hit_latency_hist::max_bucket            9                      
system.ruby.RMW_Read.hit_latency_hist::samples       733906                      
system.ruby.RMW_Read.hit_latency_hist::mean            3                      
system.ruby.RMW_Read.hit_latency_hist::gmean     3.000000                      
system.ruby.RMW_Read.hit_latency_hist    |           0      0.00%      0.00% |           0      0.00%      0.00% |           0      0.00%      0.00% |      733906    100.00%    100.00% |           0      0.00%    100.00% |           0      0.00%    100.00% |           0      0.00%    100.00% |           0      0.00%    100.00% |           0      0.00%    100.00% |           0      0.00%    100.00%
system.ruby.RMW_Read.hit_latency_hist::total       733906                      
system.ruby.RMW_Read.miss_latency_hist::bucket_size          128                      
system.ruby.RMW_Read.miss_latency_hist::max_bucket         1279                      
system.ruby.RMW_Read.miss_latency_hist::samples         2639                      
system.ruby.RMW_Read.miss_latency_hist::mean    28.653657                      
system.ruby.RMW_Read.miss_latency_hist::gmean    23.003302                      
system.ruby.RMW_Read.miss_latency_hist::stdev    36.013610                      
system.ruby.RMW_Read.miss_latency_hist   |        2539     96.21%     96.21% |          95      3.60%     99.81% |           1      0.04%     99.85% |           2      0.08%     99.92% |           1      0.04%     99.96% |           1      0.04%    100.00% |           0      0.00%    100.00% |           0      0.00%    100.00% |           0      0.00%    100.00% |           0      0.00%    100.00%
system.ruby.RMW_Read.miss_latency_hist::total         2639                      
system.ruby.Locked_RMW_Read.latency_hist::bucket_size          256                      
system.ruby.Locked_RMW_Read.latency_hist::max_bucket         2559                      
system.ruby.Locked_RMW_Read.latency_hist::samples      2262375                      
system.ruby.Locked_RMW_Read.latency_hist::mean    69.657494                      
system.ruby.Locked_RMW_Read.latency_hist::gmean    19.230311                      
system.ruby.Locked_RMW_Read.latency_hist::stdev    93.381266                      
system.ruby.Locked_RMW_Read.latency_hist |     2214619     97.89%     97.89% |       33581      1.48%     99.37% |       13602      0.60%     99.97% |         277      0.01%     99.99% |         291      0.01%    100.00% |           3      0.00%    100.00% |           2      0.00%    100.00% |           0      0.00%    100.00% |           0      0.00%    100.00% |           0      0.00%    100.00%
system.ruby.Locked_RMW_Read.latency_hist::total      2262375                      
system.ruby.Locked_RMW_Read.hit_latency_hist::bucket_size            1                      
system.ruby.Locked_RMW_Read.hit_latency_hist::max_bucket            9                      
system.ruby.Locked_RMW_Read.hit_latency_hist::samples       994813                      
system.ruby.Locked_RMW_Read.hit_latency_hist::mean            3                      
system.ruby.Locked_RMW_Read.hit_latency_hist::gmean     3.000000                      
system.ruby.Locked_RMW_Read.hit_latency_hist |           0      0.00%      0.00% |           0      0.00%      0.00% |           0      0.00%      0.00% |      994813    100.00%    100.00% |           0      0.00%    100.00% |           0      0.00%    100.00% |           0      0.00%    100.00% |           0      0.00%    100.00% |           0      0.00%    100.00% |           0      0.00%    100.00%
system.ruby.Locked_RMW_Read.hit_latency_hist::total       994813                      
system.ruby.Locked_RMW_Read.miss_latency_hist::bucket_size          256                      
system.ruby.Locked_RMW_Read.miss_latency_hist::max_bucket         2559                      
system.ruby.Locked_RMW_Read.miss_latency_hist::samples      1267562                      
system.ruby.Locked_RMW_Read.miss_latency_hist::mean   121.971891                      
system.ruby.Locked_RMW_Read.miss_latency_hist::gmean    82.648182                      
system.ruby.Locked_RMW_Read.miss_latency_hist::stdev    96.642802                      
system.ruby.Locked_RMW_Read.miss_latency_hist |     1219806     96.23%     96.23% |       33581      2.65%     98.88% |       13602      1.07%     99.95% |         277      0.02%     99.98% |         291      0.02%    100.00% |           3      0.00%    100.00% |           2      0.00%    100.00% |           0      0.00%    100.00% |           0      0.00%    100.00% |           0      0.00%    100.00%
system.ruby.Locked_RMW_Read.miss_latency_hist::total      1267562                      
system.ruby.Locked_RMW_Write.latency_hist::bucket_size            1                      
system.ruby.Locked_RMW_Write.latency_hist::max_bucket            9                      
system.ruby.Locked_RMW_Write.latency_hist::samples      2262375                      
system.ruby.Locked_RMW_Write.latency_hist::mean            3                      
system.ruby.Locked_RMW_Write.latency_hist::gmean     3.000000                      
system.ruby.Locked_RMW_Write.latency_hist |           0      0.00%      0.00% |           0      0.00%      0.00% |           0      0.00%      0.00% |     2262375    100.00%    100.00% |           0      0.00%    100.00% |           0      0.00%    100.00% |           0      0.00%    100.00% |           0      0.00%    100.00% |           0      0.00%    100.00% |           0      0.00%    100.00%
system.ruby.Locked_RMW_Write.latency_hist::total      2262375                      
system.ruby.Locked_RMW_Write.hit_latency_hist::bucket_size            1                      
system.ruby.Locked_RMW_Write.hit_latency_hist::max_bucket            9                      
system.ruby.Locked_RMW_Write.hit_latency_hist::samples      2262375                      
system.ruby.Locked_RMW_Write.hit_latency_hist::mean            3                      
system.ruby.Locked_RMW_Write.hit_latency_hist::gmean     3.000000                      
system.ruby.Locked_RMW_Write.hit_latency_hist |           0      0.00%      0.00% |           0      0.00%      0.00% |           0      0.00%      0.00% |     2262375    100.00%    100.00% |           0      0.00%    100.00% |           0      0.00%    100.00% |           0      0.00%    100.00% |           0      0.00%    100.00% |           0      0.00%    100.00% |           0      0.00%    100.00%
system.ruby.Locked_RMW_Write.hit_latency_hist::total      2262375                      
system.ruby.Directory_Controller.Fetch        2812084      0.00%      0.00%
system.ruby.Directory_Controller.Data         1692557      0.00%      0.00%
system.ruby.Directory_Controller.Memory_Data      2812084      0.00%      0.00%
system.ruby.Directory_Controller.Memory_Ack      1692557      0.00%      0.00%
system.ruby.Directory_Controller.CleanReplacement      1119527      0.00%      0.00%
system.ruby.Directory_Controller.I.Fetch      2812084      0.00%      0.00%
system.ruby.Directory_Controller.M.Data       1692557      0.00%      0.00%
system.ruby.Directory_Controller.M.CleanReplacement      1119527      0.00%      0.00%
system.ruby.Directory_Controller.IM.Memory_Data      2812084      0.00%      0.00%
system.ruby.Directory_Controller.MI.Memory_Ack      1692557      0.00%      0.00%
system.ruby.L1Cache_Controller.Load          32435516      0.00%      0.00%
system.ruby.L1Cache_Controller.Ifetch       116406118      0.00%      0.00%
system.ruby.L1Cache_Controller.Store         14012685      0.00%      0.00%
system.ruby.L1Cache_Controller.Inv               8827      0.00%      0.00%
system.ruby.L1Cache_Controller.L1_Replacement      5570160      0.00%      0.00%
system.ruby.L1Cache_Controller.Data_Exclusive      4239078      0.00%      0.00%
system.ruby.L1Cache_Controller.Data_all_Acks      1338392      0.00%      0.00%
system.ruby.L1Cache_Controller.WB_Ack         5562241      0.00%      0.00%
system.ruby.L1Cache_Controller.NP.Load        4239001      0.00%      0.00%
system.ruby.L1Cache_Controller.NP.Ifetch         7827      0.00%      0.00%
system.ruby.L1Cache_Controller.NP.Store       1323332      0.00%      0.00%
system.ruby.L1Cache_Controller.NP.Inv             735      0.00%      0.00%
system.ruby.L1Cache_Controller.I.Load              77      0.00%      0.00%
system.ruby.L1Cache_Controller.I.Ifetch          7202      0.00%      0.00%
system.ruby.L1Cache_Controller.I.Store             31      0.00%      0.00%
system.ruby.L1Cache_Controller.I.L1_Replacement          961      0.00%      0.00%
system.ruby.L1Cache_Controller.S.Ifetch     116391089      0.00%      0.00%
system.ruby.L1Cache_Controller.S.Inv             7893      0.00%      0.00%
system.ruby.L1Cache_Controller.S.L1_Replacement         6958      0.00%      0.00%
system.ruby.L1Cache_Controller.E.Load        20160598      0.00%      0.00%
system.ruby.L1Cache_Controller.E.Store         918113      0.00%      0.00%
system.ruby.L1Cache_Controller.E.Inv               93      0.00%      0.00%
system.ruby.L1Cache_Controller.E.L1_Replacement      3321200      0.00%      0.00%
system.ruby.L1Cache_Controller.M.Load         8035840      0.00%      0.00%
system.ruby.L1Cache_Controller.M.Store       11771209      0.00%      0.00%
system.ruby.L1Cache_Controller.M.Inv              106      0.00%      0.00%
system.ruby.L1Cache_Controller.M.L1_Replacement      2241041      0.00%      0.00%
system.ruby.L1Cache_Controller.IS.Data_Exclusive      4239078      0.00%      0.00%
system.ruby.L1Cache_Controller.IS.Data_all_Acks        15029      0.00%      0.00%
system.ruby.L1Cache_Controller.IM.Data_all_Acks      1323363      0.00%      0.00%
system.ruby.L1Cache_Controller.M_I.WB_Ack      5562241      0.00%      0.00%
system.ruby.L2Cache_Controller.L1_GET_INSTR        15029      0.00%      0.00%
system.ruby.L2Cache_Controller.L1_GETS        4239078      0.00%      0.00%
system.ruby.L2Cache_Controller.L1_GETX        1323363      0.00%      0.00%
system.ruby.L2Cache_Controller.L1_PUTX        5562241      0.00%      0.00%
system.ruby.L2Cache_Controller.L2_Replacement      1692459      0.00%      0.00%
system.ruby.L2Cache_Controller.L2_Replacement_clean      1119625      0.00%      0.00%
system.ruby.L2Cache_Controller.Mem_Data       2812084      0.00%      0.00%
system.ruby.L2Cache_Controller.Mem_Ack        2812084      0.00%      0.00%
system.ruby.L2Cache_Controller.WB_Data            106      0.00%      0.00%
system.ruby.L2Cache_Controller.Ack_all           8721      0.00%      0.00%
system.ruby.L2Cache_Controller.Exclusive_Unblock      5562441      0.00%      0.00%
system.ruby.L2Cache_Controller.NP.L1_GET_INSTR        10760      0.00%      0.00%
system.ruby.L2Cache_Controller.NP.L1_GETS      1890714      0.00%      0.00%
system.ruby.L2Cache_Controller.NP.L1_GETX       910610      0.00%      0.00%
system.ruby.L2Cache_Controller.SS.L1_GET_INSTR         4269      0.00%      0.00%
system.ruby.L2Cache_Controller.SS.L2_Replacement            1      0.00%      0.00%
system.ruby.L2Cache_Controller.SS.L2_Replacement_clean         8627      0.00%      0.00%
system.ruby.L2Cache_Controller.M.L1_GETS      2348364      0.00%      0.00%
system.ruby.L2Cache_Controller.M.L1_GETX       412753      0.00%      0.00%
system.ruby.L2Cache_Controller.M.L2_Replacement      1692449      0.00%      0.00%
system.ruby.L2Cache_Controller.M.L2_Replacement_clean      1110808      0.00%      0.00%
system.ruby.L2Cache_Controller.MT.L1_PUTX      5562241      0.00%      0.00%
system.ruby.L2Cache_Controller.MT.L2_Replacement            9      0.00%      0.00%
system.ruby.L2Cache_Controller.MT.L2_Replacement_clean          190      0.00%      0.00%
system.ruby.L2Cache_Controller.M_I.Mem_Ack      2812084      0.00%      0.00%
system.ruby.L2Cache_Controller.MT_I.WB_Data            8      0.00%      0.00%
system.ruby.L2Cache_Controller.MT_I.Ack_all            1      0.00%      0.00%
system.ruby.L2Cache_Controller.MCT_I.WB_Data           98      0.00%      0.00%
system.ruby.L2Cache_Controller.MCT_I.Ack_all           92      0.00%      0.00%
system.ruby.L2Cache_Controller.I_I.Ack_all         8627      0.00%      0.00%
system.ruby.L2Cache_Controller.S_I.Ack_all            1      0.00%      0.00%
system.ruby.L2Cache_Controller.ISS.Mem_Data      1890714      0.00%      0.00%
system.ruby.L2Cache_Controller.IS.Mem_Data        10760      0.00%      0.00%
system.ruby.L2Cache_Controller.IM.Mem_Data       910610      0.00%      0.00%
system.ruby.L2Cache_Controller.MT_MB.Exclusive_Unblock      5562441      0.00%      0.00%

---------- End Simulation Statistics   ----------
